SUMMARY OF JOB INFORMATION
  STEP      INC     ATT  ITRS     TOT TIME     STEP TIME      INC TIME
     1          1     1     3  0.100000E+00  0.100000E+00  0.100000E+00
     1          2     1     5  0.200000E+00  0.200000E+00  0.100000E+00
     1          3     1     5  0.300000E+00  0.300000E+00  0.100000E+00
     1          4     1     5  0.400000E+00  0.400000E+00  0.100000E+00
     1          5     1     5  0.500000E+00  0.500000E+00  0.100000E+00
     1          6     1     5  0.600000E+00  0.600000E+00  0.100000E+00
     1          7     1     5  0.700000E+00  0.700000E+00  0.100000E+00
     1          8     1     5  0.800000E+00  0.800000E+00  0.100000E+00
     1          9     1     5  0.900000E+00  0.900000E+00  0.100000E+00
     1         10     1     5  0.100000E+01  0.100000E+01  0.100000E+00
     1         11     1     5  0.110000E+01  0.110000E+01  0.100000E+00
     1         12     1     5  0.120000E+01  0.120000E+01  0.100000E+00
     1         13     1     5  0.130000E+01  0.130000E+01  0.100000E+00
     1         14     1     5  0.140000E+01  0.140000E+01  0.100000E+00
     1         15     1     5  0.150000E+01  0.150000E+01  0.100000E+00
     1         16     1     5  0.160000E+01  0.160000E+01  0.100000E+00
     1         17     1     5  0.170000E+01  0.170000E+01  0.100000E+00
     1         18     1     5  0.180000E+01  0.180000E+01  0.100000E+00
     1         19     1     5  0.190000E+01  0.190000E+01  0.100000E+00
     1         20     1     5  0.200000E+01  0.200000E+01  0.100000E+00
     1         21     1     4  0.210000E+01  0.210000E+01  0.100000E+00
     1         22     1     4  0.220000E+01  0.220000E+01  0.100000E+00
     1         23     1     4  0.235000E+01  0.235000E+01  0.150000E+00
     1         24     1     3  0.257500E+01  0.257500E+01  0.225000E+00
     1         25     1     5  0.291250E+01  0.291250E+01  0.337500E+00
     1         26     1     5  0.325000E+01  0.325000E+01  0.337500E+00
     1         27     1     5  0.358750E+01  0.358750E+01  0.337500E+00
     1         28     1     5  0.392500E+01  0.392500E+01  0.337500E+00
     1         29     1     5  0.426250E+01  0.426250E+01  0.337500E+00
     1         30     1     5  0.460000E+01  0.460000E+01  0.337500E+00
     1         31     1     5  0.493750E+01  0.493750E+01  0.337500E+00
     1         32     1     4  0.527500E+01  0.527500E+01  0.337500E+00
     1         33     1     5  0.561250E+01  0.561250E+01  0.337500E+00
     1         34     1     5  0.595000E+01  0.595000E+01  0.337500E+00
     1         35     1     5  0.628750E+01  0.628750E+01  0.337500E+00
     1         36     1     5  0.662500E+01  0.662500E+01  0.337500E+00
     1         37     1     5  0.696250E+01  0.696250E+01  0.337500E+00
     1         38     1     5  0.730000E+01  0.730000E+01  0.337500E+00
     1         39     1     5  0.763750E+01  0.763750E+01  0.337500E+00
     1         40     1     5  0.797500E+01  0.797500E+01  0.337500E+00
     1         41     1     5  0.831250E+01  0.831250E+01  0.337500E+00
     1         42     1     5  0.865000E+01  0.865000E+01  0.337500E+00
     1         43     1     5  0.898750E+01  0.898750E+01  0.337500E+00
     1         44     1     5  0.932500E+01  0.932500E+01  0.337500E+00
     1         45     1     5  0.966250E+01  0.966250E+01  0.337500E+00
     1         46     1     5  0.100000E+02  0.100000E+02  0.337500E+00
     1         47     1     5  0.103375E+02  0.103375E+02  0.337500E+00
     1         48     1     5  0.106750E+02  0.106750E+02  0.337500E+00
     1         49     1     5  0.110125E+02  0.110125E+02  0.337500E+00
     1         50     1     5  0.113500E+02  0.113500E+02  0.337500E+00
     1         51     1     5  0.116875E+02  0.116875E+02  0.337500E+00
     1         52     1     5  0.120250E+02  0.120250E+02  0.337500E+00
     1         53     1     5  0.123625E+02  0.123625E+02  0.337500E+00
     1         54     1     5  0.127000E+02  0.127000E+02  0.337500E+00
     1         55     1     3  0.130375E+02  0.130375E+02  0.337500E+00
     1         56     1     5  0.133750E+02  0.133750E+02  0.337500E+00
     1         57     1     5  0.137125E+02  0.137125E+02  0.337500E+00
     1         58     1     5  0.140500E+02  0.140500E+02  0.337500E+00
     1         59     1     5  0.143875E+02  0.143875E+02  0.337500E+00
     1         60     1     5  0.147250E+02  0.147250E+02  0.337500E+00
     1         61     1     5  0.150625E+02  0.150625E+02  0.337500E+00
     1         62     1     5  0.154000E+02  0.154000E+02  0.337500E+00
     1         63     1     3  0.157375E+02  0.157375E+02  0.337500E+00
     1         64     1     5  0.160750E+02  0.160750E+02  0.337500E+00
     1         65     1     5  0.164125E+02  0.164125E+02  0.337500E+00
     1         66     1     5  0.167500E+02  0.167500E+02  0.337500E+00
     1         67     1     5  0.170875E+02  0.170875E+02  0.337500E+00
     1         68     1     5  0.174250E+02  0.174250E+02  0.337500E+00
     1         69     1     5  0.177625E+02  0.177625E+02  0.337500E+00
     1         70     1     5  0.181000E+02  0.181000E+02  0.337500E+00
     1         71     1     4  0.184375E+02  0.184375E+02  0.337500E+00
     1         72     1     5  0.187750E+02  0.187750E+02  0.337500E+00
     1         73     1     5  0.191125E+02  0.191125E+02  0.337500E+00
     1         74     1     5  0.194500E+02  0.194500E+02  0.337500E+00
     1         75     1     5  0.197875E+02  0.197875E+02  0.337500E+00
     1         76     1     5  0.201250E+02  0.201250E+02  0.337500E+00
     1         77     1     5  0.204625E+02  0.204625E+02  0.337500E+00
     1         78     1     5  0.208000E+02  0.208000E+02  0.337500E+00
     1         79     1     5  0.211375E+02  0.211375E+02  0.337500E+00
     1         80     1     5  0.214750E+02  0.214750E+02  0.337500E+00
     1         81     1     5  0.218125E+02  0.218125E+02  0.337500E+00
     1         82     1     5  0.221500E+02  0.221500E+02  0.337500E+00
     1         83     1     5  0.224875E+02  0.224875E+02  0.337500E+00
     1         84     1     5  0.228250E+02  0.228250E+02  0.337500E+00
     1         85     1     5  0.231625E+02  0.231625E+02  0.337500E+00
     1         86     1     4  0.235000E+02  0.235000E+02  0.337500E+00
     1         87     1     5  0.238375E+02  0.238375E+02  0.337500E+00
     1         88     1     5  0.241750E+02  0.241750E+02  0.337500E+00
     1         89     1     5  0.245125E+02  0.245125E+02  0.337500E+00
     1         90     1     5  0.248500E+02  0.248500E+02  0.337500E+00
     1         91     1     5  0.251875E+02  0.251875E+02  0.337500E+00
     1         92     1     5  0.255250E+02  0.255250E+02  0.337500E+00
     1         93     1     5  0.258625E+02  0.258625E+02  0.337500E+00
     1         94     1     3  0.262000E+02  0.262000E+02  0.337500E+00
     1         95     1     5  0.265375E+02  0.265375E+02  0.337500E+00
     1         96     1     5  0.268750E+02  0.268750E+02  0.337500E+00
     1         97     1     5  0.272125E+02  0.272125E+02  0.337500E+00
     1         98     1     5  0.275500E+02  0.275500E+02  0.337500E+00
     1         99     1     5  0.278875E+02  0.278875E+02  0.337500E+00
     1        100     1     5  0.282250E+02  0.282250E+02  0.337500E+00
     1        101     1     5  0.285625E+02  0.285625E+02  0.337500E+00
     1        102     1     4  0.289000E+02  0.289000E+02  0.337500E+00
     1        103     1     5  0.292375E+02  0.292375E+02  0.337500E+00
     1        104     1     5  0.295750E+02  0.295750E+02  0.337500E+00
     1        105     1     5  0.299125E+02  0.299125E+02  0.337500E+00
     1        106     1     5  0.302500E+02  0.302500E+02  0.337500E+00
     1        107     1     5  0.305875E+02  0.305875E+02  0.337500E+00
     1        108     1     5  0.309250E+02  0.309250E+02  0.337500E+00
     1        109     1     5  0.312625E+02  0.312625E+02  0.337500E+00
     1        110     1     4  0.316000E+02  0.316000E+02  0.337500E+00
     1        111     1     5  0.319375E+02  0.319375E+02  0.337500E+00
     1        112     1     5  0.322750E+02  0.322750E+02  0.337500E+00
     1        113     1     5  0.326125E+02  0.326125E+02  0.337500E+00
     1        114     1     5  0.329500E+02  0.329500E+02  0.337500E+00
     1        115     1     5  0.332875E+02  0.332875E+02  0.337500E+00
     1        116     1     5  0.336250E+02  0.336250E+02  0.337500E+00
     1        117     1     4  0.339625E+02  0.339625E+02  0.337500E+00
     1        118     1     5  0.343000E+02  0.343000E+02  0.337500E+00
     1        119     1     5  0.346375E+02  0.346375E+02  0.337500E+00
     1        120     1     5  0.349750E+02  0.349750E+02  0.337500E+00
     1        121     1     5  0.353125E+02  0.353125E+02  0.337500E+00
     1        122     1     5  0.356500E+02  0.356500E+02  0.337500E+00
     1        123     1     5  0.359875E+02  0.359875E+02  0.337500E+00
     1        124     1     5  0.363250E+02  0.363250E+02  0.337500E+00
     1        125     1     3  0.366625E+02  0.366625E+02  0.337500E+00
     1        126     1     5  0.370000E+02  0.370000E+02  0.337500E+00
     1        127     1     5  0.373375E+02  0.373375E+02  0.337500E+00
     1        128     1     5  0.376750E+02  0.376750E+02  0.337500E+00
     1        129     1     5  0.380125E+02  0.380125E+02  0.337500E+00
     1        130     1     5  0.383500E+02  0.383500E+02  0.337500E+00
     1        131     1     5  0.386875E+02  0.386875E+02  0.337500E+00
     1        132     1     5  0.390250E+02  0.390250E+02  0.337500E+00
     1        133     1     3  0.393625E+02  0.393625E+02  0.337500E+00
     1        134     1     5  0.397000E+02  0.397000E+02  0.337500E+00
     1        135     1     5  0.400375E+02  0.400375E+02  0.337500E+00
     1        136     1     5  0.403750E+02  0.403750E+02  0.337500E+00
     1        137     1     5  0.407125E+02  0.407125E+02  0.337500E+00
     1        138     1     5  0.410500E+02  0.410500E+02  0.337500E+00
     1        139     1     5  0.413875E+02  0.413875E+02  0.337500E+00
     1        140     1     5  0.417250E+02  0.417250E+02  0.337500E+00
     1        141     1     4  0.420625E+02  0.420625E+02  0.337500E+00
     1        142     1     5  0.424000E+02  0.424000E+02  0.337500E+00
     1        143     1     5  0.427375E+02  0.427375E+02  0.337500E+00
     1        144     1     5  0.430750E+02  0.430750E+02  0.337500E+00
     1        145     1     5  0.434125E+02  0.434125E+02  0.337500E+00
     1        146     1     5  0.437500E+02  0.437500E+02  0.337500E+00
     1        147     1     5  0.440875E+02  0.440875E+02  0.337500E+00
     1        148     1     5  0.444250E+02  0.444250E+02  0.337500E+00
     1        149     1     5  0.447625E+02  0.447625E+02  0.337500E+00
     1        150     1     5  0.451000E+02  0.451000E+02  0.337500E+00
     1        151     1     5  0.454375E+02  0.454375E+02  0.337500E+00
     1        152     1     5  0.457750E+02  0.457750E+02  0.337500E+00
     1        153     1     5  0.461125E+02  0.461125E+02  0.337500E+00
     1        154     1     5  0.464500E+02  0.464500E+02  0.337500E+00
     1        155     1     5  0.467875E+02  0.467875E+02  0.337500E+00
     1        156     1     4  0.471250E+02  0.471250E+02  0.337500E+00
     1        157     1     5  0.474625E+02  0.474625E+02  0.337500E+00
     1        158     1     5  0.478000E+02  0.478000E+02  0.337500E+00
     1        159     1     5  0.481375E+02  0.481375E+02  0.337500E+00
     1        160     1     5  0.484750E+02  0.484750E+02  0.337500E+00
     1        161     1     5  0.488125E+02  0.488125E+02  0.337500E+00
     1        162     1     5  0.491500E+02  0.491500E+02  0.337500E+00
     1        163     1     5  0.494875E+02  0.494875E+02  0.337500E+00
     1        164     1     4  0.498250E+02  0.498250E+02  0.337500E+00
     1        165     1     5  0.501625E+02  0.501625E+02  0.337500E+00
     1        166     1     5  0.505000E+02  0.505000E+02  0.337500E+00
     1        167     1     5  0.508375E+02  0.508375E+02  0.337500E+00
     1        168     1     5  0.511750E+02  0.511750E+02  0.337500E+00
     1        169     1     5  0.515125E+02  0.515125E+02  0.337500E+00
     1        170     1     5  0.518500E+02  0.518500E+02  0.337500E+00
     1        171     1     5  0.521875E+02  0.521875E+02  0.337500E+00
     1        172     1     4  0.525250E+02  0.525250E+02  0.337500E+00
     1        173     1     5  0.528625E+02  0.528625E+02  0.337500E+00
     1        174     1     5  0.532000E+02  0.532000E+02  0.337500E+00
     1        175     1     5  0.535375E+02  0.535375E+02  0.337500E+00
     1        176     1     5  0.538750E+02  0.538750E+02  0.337500E+00
     1        177     1     5  0.542125E+02  0.542125E+02  0.337500E+00
     1        178     1     5  0.545500E+02  0.545500E+02  0.337500E+00
     1        179     1     5  0.548875E+02  0.548875E+02  0.337500E+00
     1        180     1     4  0.552250E+02  0.552250E+02  0.337500E+00
     1        181     1     5  0.555625E+02  0.555625E+02  0.337500E+00
     1        182     1     5  0.559000E+02  0.559000E+02  0.337500E+00
     1        183     1     5  0.562375E+02  0.562375E+02  0.337500E+00
     1        184     1     5  0.565750E+02  0.565750E+02  0.337500E+00
     1        185     1     5  0.569125E+02  0.569125E+02  0.337500E+00
     1        186     1     5  0.572500E+02  0.572500E+02  0.337500E+00
     1        187     1     4  0.575875E+02  0.575875E+02  0.337500E+00
     1        188     1     5  0.579250E+02  0.579250E+02  0.337500E+00
     1        189     1     5  0.582625E+02  0.582625E+02  0.337500E+00
     1        190     1     5  0.586000E+02  0.586000E+02  0.337500E+00
     1        191     1     5  0.589375E+02  0.589375E+02  0.337500E+00
     1        192     1     5  0.592750E+02  0.592750E+02  0.337500E+00
     1        193     1     5  0.596125E+02  0.596125E+02  0.337500E+00
     1        194     1     5  0.599500E+02  0.599500E+02  0.337500E+00
     1        195     1     4  0.602875E+02  0.602875E+02  0.337500E+00
     1        196     1     5  0.606250E+02  0.606250E+02  0.337500E+00
     1        197     1     5  0.609625E+02  0.609625E+02  0.337500E+00
     1        198     1     5  0.613000E+02  0.613000E+02  0.337500E+00
     1        199     1     5  0.616375E+02  0.616375E+02  0.337500E+00
     1        200     1     5  0.619750E+02  0.619750E+02  0.337500E+00
     1        201     1     5  0.623125E+02  0.623125E+02  0.337500E+00
     1        202     1     5  0.626500E+02  0.626500E+02  0.337500E+00
     1        203     1     3  0.629875E+02  0.629875E+02  0.337500E+00
     1        204     1     5  0.633250E+02  0.633250E+02  0.337500E+00
     1        205     1     5  0.636625E+02  0.636625E+02  0.337500E+00
     1        206     1     5  0.640000E+02  0.640000E+02  0.337500E+00
     1        207     1     5  0.643375E+02  0.643375E+02  0.337500E+00
     1        208     1     5  0.646750E+02  0.646750E+02  0.337500E+00
     1        209     1     5  0.650125E+02  0.650125E+02  0.337500E+00
     1        210     1     5  0.653500E+02  0.653500E+02  0.337500E+00
     1        211     1     4  0.656875E+02  0.656875E+02  0.337500E+00
     1        212     1     5  0.660250E+02  0.660250E+02  0.337500E+00
     1        213     1     5  0.663625E+02  0.663625E+02  0.337500E+00
     1        214     1     5  0.667000E+02  0.667000E+02  0.337500E+00
     1        215     1     5  0.670375E+02  0.670375E+02  0.337500E+00
     1        216     1     5  0.673750E+02  0.673750E+02  0.337500E+00
     1        217     1     5  0.677125E+02  0.677125E+02  0.337500E+00
     1        218     1     5  0.680500E+02  0.680500E+02  0.337500E+00
     1        219     1     5  0.683875E+02  0.683875E+02  0.337500E+00
     1        220     1     5  0.687250E+02  0.687250E+02  0.337500E+00
     1        221     1     5  0.690625E+02  0.690625E+02  0.337500E+00
     1        222     1     5  0.694000E+02  0.694000E+02  0.337500E+00
     1        223     1     5  0.697375E+02  0.697375E+02  0.337500E+00
     1        224     1     5  0.700750E+02  0.700750E+02  0.337500E+00
     1        225     1     5  0.704125E+02  0.704125E+02  0.337500E+00
     1        226     1     4  0.707500E+02  0.707500E+02  0.337500E+00
     1        227     1     5  0.710875E+02  0.710875E+02  0.337500E+00
     1        228     1     5  0.714250E+02  0.714250E+02  0.337500E+00
     1        229     1     5  0.717625E+02  0.717625E+02  0.337500E+00
     1        230     1     5  0.721000E+02  0.721000E+02  0.337500E+00
     1        231     1     5  0.724375E+02  0.724375E+02  0.337500E+00
     1        232     1     5  0.727750E+02  0.727750E+02  0.337500E+00
     1        233     1     5  0.731125E+02  0.731125E+02  0.337500E+00
     1        234     1     3  0.734500E+02  0.734500E+02  0.337500E+00
     1        235     1     5  0.737875E+02  0.737875E+02  0.337500E+00
     1        236     1     5  0.741250E+02  0.741250E+02  0.337500E+00
     1        237     1     5  0.744625E+02  0.744625E+02  0.337500E+00
     1        238     1     5  0.748000E+02  0.748000E+02  0.337500E+00
     1        239     1     5  0.751375E+02  0.751375E+02  0.337500E+00
     1        240     1     5  0.754750E+02  0.754750E+02  0.337500E+00
     1        241     1     5  0.758125E+02  0.758125E+02  0.337500E+00
     1        242     1     3  0.761500E+02  0.761500E+02  0.337500E+00
     1        243     1     5  0.764875E+02  0.764875E+02  0.337500E+00
     1        244     1     5  0.768250E+02  0.768250E+02  0.337500E+00
     1        245     1     5  0.771625E+02  0.771625E+02  0.337500E+00
     1        246     1     5  0.775000E+02  0.775000E+02  0.337500E+00
     1        247     1     5  0.778375E+02  0.778375E+02  0.337500E+00
     1        248     1     5  0.781750E+02  0.781750E+02  0.337500E+00
     1        249     1     5  0.785125E+02  0.785125E+02  0.337500E+00
     1        250     1     4  0.788500E+02  0.788500E+02  0.337500E+00
     1        251     1     5  0.791875E+02  0.791875E+02  0.337500E+00
     1        252     1     5  0.795250E+02  0.795250E+02  0.337500E+00
     1        253     1     5  0.798625E+02  0.798625E+02  0.337500E+00
     1        254     1     5  0.802000E+02  0.802000E+02  0.337500E+00
     1        255     1     5  0.805375E+02  0.805375E+02  0.337500E+00
     1        256     1     5  0.808750E+02  0.808750E+02  0.337500E+00
     1        257     1     4  0.812125E+02  0.812125E+02  0.337500E+00
     1        258     1     5  0.815500E+02  0.815500E+02  0.337500E+00
     1        259     1     5  0.818875E+02  0.818875E+02  0.337500E+00
     1        260     1     5  0.822250E+02  0.822250E+02  0.337500E+00
     1        261     1     5  0.825625E+02  0.825625E+02  0.337500E+00
     1        262     1     5  0.829000E+02  0.829000E+02  0.337500E+00
     1        263     1     5  0.832375E+02  0.832375E+02  0.337500E+00
     1        264     1     5  0.835750E+02  0.835750E+02  0.337500E+00
     1        265     1     4  0.839125E+02  0.839125E+02  0.337500E+00
     1        266     1     5  0.842500E+02  0.842500E+02  0.337500E+00
     1        267     1     5  0.845875E+02  0.845875E+02  0.337500E+00
     1        268     1     5  0.849250E+02  0.849250E+02  0.337500E+00
     1        269     1     5  0.852625E+02  0.852625E+02  0.337500E+00
     1        270     1     5  0.856000E+02  0.856000E+02  0.337500E+00
     1        271     1     5  0.859375E+02  0.859375E+02  0.337500E+00
     1        272     1     5  0.862750E+02  0.862750E+02  0.337500E+00
     1        273     1     3  0.866125E+02  0.866125E+02  0.337500E+00
     1        274     1     5  0.869500E+02  0.869500E+02  0.337500E+00
     1        275     1     5  0.872875E+02  0.872875E+02  0.337500E+00
     1        276     1     5  0.876250E+02  0.876250E+02  0.337500E+00
     1        277     1     5  0.879625E+02  0.879625E+02  0.337500E+00
     1        278     1     5  0.883000E+02  0.883000E+02  0.337500E+00
     1        279     1     5  0.886375E+02  0.886375E+02  0.337500E+00
     1        280     1     5  0.889750E+02  0.889750E+02  0.337500E+00
     1        281     1     4  0.893125E+02  0.893125E+02  0.337500E+00
     1        282     1     5  0.896500E+02  0.896500E+02  0.337500E+00
     1        283     1     5  0.899875E+02  0.899875E+02  0.337500E+00
     1        284     1     5  0.903250E+02  0.903250E+02  0.337500E+00
     1        285     1     5  0.906625E+02  0.906625E+02  0.337500E+00
     1        286     1     5  0.910000E+02  0.910000E+02  0.337500E+00
     1        287     1     5  0.913375E+02  0.913375E+02  0.337500E+00
     1        288     1     5  0.916750E+02  0.916750E+02  0.337500E+00
     1        289     1     5  0.920125E+02  0.920125E+02  0.337500E+00
     1        290     1     5  0.923500E+02  0.923500E+02  0.337500E+00
     1        291     1     5  0.926875E+02  0.926875E+02  0.337500E+00
     1        292     1     5  0.930250E+02  0.930250E+02  0.337500E+00
     1        293     1     5  0.933625E+02  0.933625E+02  0.337500E+00
     1        294     1     5  0.937000E+02  0.937000E+02  0.337500E+00
     1        295     1     5  0.940375E+02  0.940375E+02  0.337500E+00
     1        296     1     4  0.943750E+02  0.943750E+02  0.337500E+00
     1        297     1     5  0.947125E+02  0.947125E+02  0.337500E+00
     1        298     1     5  0.950500E+02  0.950500E+02  0.337500E+00
     1        299     1     5  0.953875E+02  0.953875E+02  0.337500E+00
     1        300     1     5  0.957250E+02  0.957250E+02  0.337500E+00
     1        301     1     5  0.960625E+02  0.960625E+02  0.337500E+00
     1        302     1     5  0.964000E+02  0.964000E+02  0.337500E+00
     1        303     1     5  0.967375E+02  0.967375E+02  0.337500E+00
     1        304     1     4  0.970750E+02  0.970750E+02  0.337500E+00
     1        305     1     5  0.974125E+02  0.974125E+02  0.337500E+00
     1        306     1     5  0.977500E+02  0.977500E+02  0.337500E+00
     1        307     1     5  0.980875E+02  0.980875E+02  0.337500E+00
     1        308     1     5  0.984250E+02  0.984250E+02  0.337500E+00
     1        309     1     5  0.987625E+02  0.987625E+02  0.337500E+00
     1        310     1     5  0.991000E+02  0.991000E+02  0.337500E+00
     1        311     1     5  0.994375E+02  0.994375E+02  0.337500E+00
     1        312     1     4  0.997750E+02  0.997750E+02  0.337500E+00
     1        313     1     5  0.100112E+03  0.100112E+03  0.337500E+00
     1        314     1     5  0.100450E+03  0.100450E+03  0.337500E+00
     1        315     1     5  0.100787E+03  0.100787E+03  0.337500E+00
     1        316     1     5  0.101125E+03  0.101125E+03  0.337500E+00
     1        317     1     5  0.101462E+03  0.101462E+03  0.337500E+00
     1        318     1     5  0.101800E+03  0.101800E+03  0.337500E+00
     1        319     1     5  0.102137E+03  0.102137E+03  0.337500E+00
     1        320     1     4  0.102475E+03  0.102475E+03  0.337500E+00
     1        321     1     5  0.102812E+03  0.102812E+03  0.337500E+00
     1        322     1     5  0.103150E+03  0.103150E+03  0.337500E+00
     1        323     1     5  0.103487E+03  0.103487E+03  0.337500E+00
     1        324     1     5  0.103825E+03  0.103825E+03  0.337500E+00
     1        325     1     5  0.104162E+03  0.104162E+03  0.337500E+00
     1        326     1     5  0.104500E+03  0.104500E+03  0.337500E+00
     1        327     1     4  0.104837E+03  0.104837E+03  0.337500E+00
     1        328     1     5  0.105175E+03  0.105175E+03  0.337500E+00
     1        329     1     5  0.105512E+03  0.105512E+03  0.337500E+00
     1        330     1     5  0.105850E+03  0.105850E+03  0.337500E+00
     1        331     1     5  0.106187E+03  0.106187E+03  0.337500E+00
     1        332     1     5  0.106525E+03  0.106525E+03  0.337500E+00
     1        333     1     5  0.106862E+03  0.106862E+03  0.337500E+00
     1        334     1     5  0.107200E+03  0.107200E+03  0.337500E+00
     1        335     1     4  0.107537E+03  0.107537E+03  0.337500E+00
     1        336     1     5  0.107875E+03  0.107875E+03  0.337500E+00
     1        337     1     5  0.108212E+03  0.108212E+03  0.337500E+00
     1        338     1     5  0.108550E+03  0.108550E+03  0.337500E+00
     1        339     1     5  0.108887E+03  0.108887E+03  0.337500E+00
     1        340     1     5  0.109225E+03  0.109225E+03  0.337500E+00
     1        341     1     5  0.109562E+03  0.109562E+03  0.337500E+00
     1        342     1     5  0.109900E+03  0.109900E+03  0.337500E+00
     1        343     1     3  0.110237E+03  0.110237E+03  0.337500E+00
     1        344     1     5  0.110575E+03  0.110575E+03  0.337500E+00
     1        345     1     5  0.110912E+03  0.110912E+03  0.337500E+00
     1        346     1     5  0.111250E+03  0.111250E+03  0.337500E+00
     1        347     1     5  0.111587E+03  0.111587E+03  0.337500E+00
     1        348     1     5  0.111925E+03  0.111925E+03  0.337500E+00
     1        349     1     5  0.112262E+03  0.112262E+03  0.337500E+00
     1        350     1     5  0.112600E+03  0.112600E+03  0.337500E+00
     1        351     1     4  0.112937E+03  0.112937E+03  0.337500E+00
     1        352     1     5  0.113275E+03  0.113275E+03  0.337500E+00
     1        353     1     5  0.113612E+03  0.113612E+03  0.337500E+00
     1        354     1     5  0.113950E+03  0.113950E+03  0.337500E+00
     1        355     1     5  0.114287E+03  0.114287E+03  0.337500E+00
     1        356     1     5  0.114625E+03  0.114625E+03  0.337500E+00
     1        357     1     5  0.114962E+03  0.114962E+03  0.337500E+00
     1        358     1     5  0.115300E+03  0.115300E+03  0.337500E+00
     1        359     1     5  0.115637E+03  0.115637E+03  0.337500E+00
     1        360     1     5  0.115975E+03  0.115975E+03  0.337500E+00
     1        361     1     5  0.116312E+03  0.116312E+03  0.337500E+00
     1        362     1     5  0.116650E+03  0.116650E+03  0.337500E+00
     1        363     1     5  0.116987E+03  0.116987E+03  0.337500E+00
     1        364     1     5  0.117325E+03  0.117325E+03  0.337500E+00
     1        365     1     5  0.117662E+03  0.117662E+03  0.337500E+00
     1        366     1     4  0.118000E+03  0.118000E+03  0.337500E+00
     1        367     1     5  0.118337E+03  0.118337E+03  0.337500E+00
     1        368     1     5  0.118675E+03  0.118675E+03  0.337500E+00
     1        369     1     5  0.119012E+03  0.119012E+03  0.337500E+00
     1        370     1     5  0.119350E+03  0.119350E+03  0.337500E+00
     1        371     1     5  0.119687E+03  0.119687E+03  0.337500E+00
     1        372     1     5  0.120000E+03  0.120000E+03  0.312500E+00
