SUMMARY OF JOB INFORMATION
  STEP      INC     ATT  ITRS     TOT TIME     STEP TIME      INC TIME
     1          1     1     3  0.100000E+00  0.100000E+00  0.100000E+00
     1          2     1     5  0.200000E+00  0.200000E+00  0.100000E+00
     1          3     1     5  0.300000E+00  0.300000E+00  0.100000E+00
     1          4     1     6  0.400000E+00  0.400000E+00  0.100000E+00
     1          5     1     5  0.500000E+00  0.500000E+00  0.100000E+00
     1          6     1     5  0.600000E+00  0.600000E+00  0.100000E+00
     1          7     1     6  0.700000E+00  0.700000E+00  0.100000E+00
     1          8     1     5  0.800000E+00  0.800000E+00  0.100000E+00
     1          9     1     5  0.900000E+00  0.900000E+00  0.100000E+00
     1         10     1     5  0.100000E+01  0.100000E+01  0.100000E+00
     1         11     1     5  0.110000E+01  0.110000E+01  0.100000E+00
     1         12     1     5  0.120000E+01  0.120000E+01  0.100000E+00
     1         13     1U    5  0.120000E+01  0.120000E+01  0.100000E+00
     1         13     2     3  0.122500E+01  0.122500E+01  0.250000E-01
     1         14     1     4  0.125000E+01  0.125000E+01  0.250000E-01
     1         15     1     5  0.128750E+01  0.128750E+01  0.375000E-01
     1         16     1     4  0.132500E+01  0.132500E+01  0.375000E-01
     1         17     1     3  0.136250E+01  0.136250E+01  0.375000E-01
     1         18     1U    5  0.136250E+01  0.136250E+01  0.562500E-01
     1         18     2     3  0.137656E+01  0.137656E+01  0.140625E-01
     1         19     1     3  0.139062E+01  0.139062E+01  0.140625E-01
     1         20     1U    5  0.139062E+01  0.139062E+01  0.210937E-01
     1         20     2     3  0.139590E+01  0.139590E+01  0.527344E-02
     1         21     1     3  0.140117E+01  0.140117E+01  0.527344E-02
     1         22     1     3  0.140908E+01  0.140908E+01  0.791016E-02
     1         23     1     4  0.142095E+01  0.142095E+01  0.118652E-01
     1         24     1     4  0.143875E+01  0.143875E+01  0.177979E-01
     1         25     1     3  0.146544E+01  0.146544E+01  0.266968E-01
     1         26     1     4  0.150549E+01  0.150549E+01  0.400452E-01
     1         27     1     3  0.156555E+01  0.156555E+01  0.600677E-01
     1         28     1     4  0.165566E+01  0.165566E+01  0.901016E-01
     1         29     1     4  0.179081E+01  0.179081E+01  0.135152E+00
     1         30     1     5  0.199354E+01  0.199354E+01  0.202729E+00
     1         31     1     5  0.219627E+01  0.219627E+01  0.202729E+00
     1         32     1     5  0.239899E+01  0.239899E+01  0.202729E+00
     1         33     1U    4  0.239899E+01  0.239899E+01  0.202729E+00
     1         33     2     4  0.244968E+01  0.244968E+01  0.506822E-01
     1         34     1     4  0.250036E+01  0.250036E+01  0.506822E-01
     1         35     1     4  0.257638E+01  0.257638E+01  0.760232E-01
     1         36     1     5  0.269042E+01  0.269042E+01  0.114035E+00
     1         37     1     5  0.280445E+01  0.280445E+01  0.114035E+00
     1         38     1U    4  0.280445E+01  0.280445E+01  0.114035E+00
     1         38     2     3  0.283296E+01  0.283296E+01  0.285087E-01
     1         39     1     3  0.286147E+01  0.286147E+01  0.285087E-01
     1         40     1     4  0.290423E+01  0.290423E+01  0.427631E-01
     1         41     1     4  0.296838E+01  0.296838E+01  0.641446E-01
     1         42     1     4  0.306459E+01  0.306459E+01  0.962169E-01
     1         43     1U    4  0.306459E+01  0.306459E+01  0.144325E+00
     1         43     2     3  0.310068E+01  0.310068E+01  0.360813E-01
     1         44     1     3  0.313676E+01  0.313676E+01  0.360813E-01
     1         45     1     3  0.319088E+01  0.319088E+01  0.541220E-01
     1         46     1     6  0.327206E+01  0.327206E+01  0.811830E-01
     1         47     1     3  0.335324E+01  0.335324E+01  0.811830E-01
     1         48     1     3  0.343443E+01  0.343443E+01  0.811830E-01
     1         49     1     6  0.355620E+01  0.355620E+01  0.121775E+00
     1         50     1U    4  0.355620E+01  0.355620E+01  0.121775E+00
     1         50     2     4  0.358665E+01  0.358665E+01  0.304436E-01
     1         51     1     3  0.361709E+01  0.361709E+01  0.304436E-01
     1         52     1     4  0.366276E+01  0.366276E+01  0.456655E-01
     1         53     1     4  0.373125E+01  0.373125E+01  0.684982E-01
     1         54     1     4  0.383400E+01  0.383400E+01  0.102747E+00
     1         55     1     6  0.398812E+01  0.398812E+01  0.154121E+00
     1         56     1U    5  0.398812E+01  0.398812E+01  0.154121E+00
     1         56     2     4  0.402665E+01  0.402665E+01  0.385302E-01
     1         57     1U    4  0.402665E+01  0.402665E+01  0.385302E-01
     1         57     2     3  0.403628E+01  0.403628E+01  0.963256E-02
     1         58     1U    5  0.403628E+01  0.403628E+01  0.963256E-02
     1         58     2     3  0.403869E+01  0.403869E+01  0.240814E-02
     1         59     1     3  0.404110E+01  0.404110E+01  0.240814E-02
     1         60     1     3  0.404471E+01  0.404471E+01  0.361221E-02
     1         61     1     3  0.405013E+01  0.405013E+01  0.541831E-02
     1         62     1     4  0.405826E+01  0.405826E+01  0.812747E-02
     1         63     1     3  0.407045E+01  0.407045E+01  0.121912E-01
     1         64     1     4  0.408874E+01  0.408874E+01  0.182868E-01
     1         65     1     4  0.411617E+01  0.411617E+01  0.274302E-01
     1         66     1U    5  0.411617E+01  0.411617E+01  0.411453E-01
     1         66     2     4  0.412645E+01  0.412645E+01  0.102863E-01
     1         67     1     4  0.413674E+01  0.413674E+01  0.102863E-01
     1         68     1     4  0.415217E+01  0.415217E+01  0.154295E-01
     1         69     1     5  0.417531E+01  0.417531E+01  0.231442E-01
     1         70     1U    4  0.417531E+01  0.417531E+01  0.231442E-01
     1         70     2     4  0.418110E+01  0.418110E+01  0.578606E-02
     1         71     1     3  0.418689E+01  0.418689E+01  0.578606E-02
     1         72     1     4  0.419556E+01  0.419556E+01  0.867909E-02
     1         73     1     3  0.420858E+01  0.420858E+01  0.130186E-01
     1         74     1     4  0.422811E+01  0.422811E+01  0.195280E-01
     1         75     1     4  0.425740E+01  0.425740E+01  0.292919E-01
     1         76     1     7  0.430134E+01  0.430134E+01  0.439379E-01
     1         77     1U    4  0.430134E+01  0.430134E+01  0.439379E-01
     1         77     2     4  0.431233E+01  0.431233E+01  0.109845E-01
     1         78     1     3  0.432331E+01  0.432331E+01  0.109845E-01
     1         79     1     3  0.433979E+01  0.433979E+01  0.164767E-01
     1         80     1     4  0.436450E+01  0.436450E+01  0.247151E-01
     1         81     1     4  0.440157E+01  0.440157E+01  0.370726E-01
     1         82     1     4  0.445718E+01  0.445718E+01  0.556089E-01
     1         83     1     4  0.454060E+01  0.454060E+01  0.834133E-01
     1         84     1     7  0.466572E+01  0.466572E+01  0.125120E+00
     1         85     1     4  0.479084E+01  0.479084E+01  0.125120E+00
     1         86     1     5  0.491596E+01  0.491596E+01  0.125120E+00
     1         87     1     3  0.504108E+01  0.504108E+01  0.125120E+00
     1         88     1     3  0.516620E+01  0.516620E+01  0.125120E+00
     1         89     1U    4  0.516620E+01  0.516620E+01  0.187680E+00
     1         89     2     3  0.521312E+01  0.521312E+01  0.469200E-01
     1         90     1     3  0.526004E+01  0.526004E+01  0.469200E-01
     1         91     1     3  0.533042E+01  0.533042E+01  0.703800E-01
     1         92     1     3  0.543599E+01  0.543599E+01  0.105570E+00
     1         93     1U    5  0.543599E+01  0.543599E+01  0.158355E+00
     1         93     2     3  0.547558E+01  0.547558E+01  0.395888E-01
     1         94     1U    4  0.547558E+01  0.547558E+01  0.395888E-01
     1         94     2     3  0.548547E+01  0.548547E+01  0.989719E-02
     1         95     1     4  0.549537E+01  0.549537E+01  0.989719E-02
     1         96     1     4  0.551022E+01  0.551022E+01  0.148458E-01
     1         97     1     3  0.553248E+01  0.553248E+01  0.222687E-01
     1         98     1     4  0.556589E+01  0.556589E+01  0.334030E-01
     1         99     1     4  0.561599E+01  0.561599E+01  0.501045E-01
     1        100     1     4  0.569115E+01  0.569115E+01  0.751568E-01
     1        101     1     5  0.580388E+01  0.580388E+01  0.112735E+00
     1        102     1     5  0.591662E+01  0.591662E+01  0.112735E+00
     1        103     1U    4  0.591662E+01  0.591662E+01  0.112735E+00
     1        103     2     4  0.594480E+01  0.594480E+01  0.281838E-01
     1        104     1U    5  0.594480E+01  0.594480E+01  0.281838E-01
     1        104     2     3  0.595185E+01  0.595185E+01  0.704595E-02
     1        105     1     3  0.595889E+01  0.595889E+01  0.704595E-02
     1        106     1     3  0.596946E+01  0.596946E+01  0.105689E-01
     1        107     1     3  0.598532E+01  0.598532E+01  0.158534E-01
     1        108     1     4  0.600910E+01  0.600910E+01  0.237801E-01
     1        109     1     6  0.604477E+01  0.604477E+01  0.356701E-01
     1        110     1     4  0.608044E+01  0.608044E+01  0.356701E-01
     1        111     1     4  0.611611E+01  0.611611E+01  0.356701E-01
     1        112     1     4  0.616961E+01  0.616961E+01  0.535052E-01
     1        113     1     4  0.624987E+01  0.624987E+01  0.802577E-01
     1        114     1     4  0.637026E+01  0.637026E+01  0.120387E+00
     1        115     1     5  0.655084E+01  0.655084E+01  0.180580E+00
     1        116     1     3  0.673142E+01  0.673142E+01  0.180580E+00
     1        117     1     6  0.691200E+01  0.691200E+01  0.180580E+00
     1        118     1U    4  0.691200E+01  0.691200E+01  0.180580E+00
     1        118     2     3  0.695714E+01  0.695714E+01  0.451450E-01
     1        119     1     3  0.700229E+01  0.700229E+01  0.451450E-01
     1        120     1     4  0.707000E+01  0.707000E+01  0.677175E-01
     1        121     1     6  0.717158E+01  0.717158E+01  0.101576E+00
     1        122     1     6  0.727316E+01  0.727316E+01  0.101576E+00
     1        123     1U    5  0.727316E+01  0.727316E+01  0.101576E+00
     1        123     2     3  0.729855E+01  0.729855E+01  0.253941E-01
     1        124     1     3  0.732394E+01  0.732394E+01  0.253941E-01
     1        125     1     4  0.736204E+01  0.736204E+01  0.380911E-01
     1        126     1U    5  0.736204E+01  0.736204E+01  0.571366E-01
     1        126     2     3  0.737632E+01  0.737632E+01  0.142842E-01
     1        127     1     3  0.739060E+01  0.739060E+01  0.142842E-01
     1        128     1     4  0.741203E+01  0.741203E+01  0.214262E-01
     1        129     1     4  0.744417E+01  0.744417E+01  0.321393E-01
     1        130     1     4  0.749238E+01  0.749238E+01  0.482090E-01
     1        131     1     3  0.756469E+01  0.756469E+01  0.723135E-01
     1        132     1     4  0.767316E+01  0.767316E+01  0.108470E+00
     1        133     1     5  0.783587E+01  0.783587E+01  0.162705E+00
     1        134     1     5  0.799857E+01  0.799857E+01  0.162705E+00
     1        135     1     5  0.816128E+01  0.816128E+01  0.162705E+00
     1        136     1     3  0.832398E+01  0.832398E+01  0.162705E+00
     1        137     1     3  0.848669E+01  0.848669E+01  0.162705E+00
     1        138     1     3  0.873075E+01  0.873075E+01  0.244058E+00
     1        139     1     5  0.909683E+01  0.909683E+01  0.366087E+00
     1        140     1     5  0.946292E+01  0.946292E+01  0.366087E+00
     1        141     1U    4  0.946292E+01  0.946292E+01  0.366087E+00
     1        141     2     4  0.955444E+01  0.955444E+01  0.915218E-01
     1        142     1     4  0.964597E+01  0.964597E+01  0.915218E-01
     1        143     1U    5  0.964597E+01  0.964597E+01  0.137283E+00
     1        143     2     4  0.968029E+01  0.968029E+01  0.343207E-01
     1        144     1     3  0.971461E+01  0.971461E+01  0.343207E-01
     1        145     1     3  0.976609E+01  0.976609E+01  0.514810E-01
     1        146     1     3  0.984331E+01  0.984331E+01  0.772215E-01
     1        147     1U    4  0.984331E+01  0.984331E+01  0.115832E+00
     1        147     2     3  0.987227E+01  0.987227E+01  0.289581E-01
     1        148     1     3  0.990123E+01  0.990123E+01  0.289581E-01
     1        149     1     3  0.994466E+01  0.994466E+01  0.434371E-01
     1        150     1     3  0.100098E+02  0.100098E+02  0.651557E-01
     1        151     1     3  0.101076E+02  0.101076E+02  0.977335E-01
     1        152     1     3  0.102542E+02  0.102542E+02  0.146600E+00
     1        153     1U    4  0.102542E+02  0.102542E+02  0.219900E+00
     1        153     2     3  0.103091E+02  0.103091E+02  0.549751E-01
     1        154     1     3  0.103641E+02  0.103641E+02  0.549751E-01
     1        155     1     3  0.104466E+02  0.104466E+02  0.824626E-01
     1        156     1U    5  0.104466E+02  0.104466E+02  0.123694E+00
     1        156     2     3  0.104775E+02  0.104775E+02  0.309235E-01
     1        157     1     3  0.105084E+02  0.105084E+02  0.309235E-01
     1        158     1     3  0.105548E+02  0.105548E+02  0.463852E-01
     1        159     1     3  0.106244E+02  0.106244E+02  0.695779E-01
     1        160     1     3  0.107287E+02  0.107287E+02  0.104367E+00
     1        161     1     5  0.108853E+02  0.108853E+02  0.156550E+00
     1        162     1     5  0.110418E+02  0.110418E+02  0.156550E+00
     1        163     1     5  0.111984E+02  0.111984E+02  0.156550E+00
     1        164     1     5  0.113549E+02  0.113549E+02  0.156550E+00
     1        165     1U    4  0.113549E+02  0.113549E+02  0.156550E+00
     1        165     2     3  0.113941E+02  0.113941E+02  0.391375E-01
     1        166     1     3  0.114332E+02  0.114332E+02  0.391375E-01
     1        167     1U    5  0.114332E+02  0.114332E+02  0.587063E-01
     1        167     2     3  0.114479E+02  0.114479E+02  0.146766E-01
     1        168     1     3  0.114626E+02  0.114626E+02  0.146766E-01
     1        169     1     4  0.114846E+02  0.114846E+02  0.220149E-01
     1        170     1     3  0.115176E+02  0.115176E+02  0.330223E-01
     1        171     1     3  0.115671E+02  0.115671E+02  0.495335E-01
     1        172     1U    5  0.115671E+02  0.115671E+02  0.743002E-01
     1        172     2     3  0.115857E+02  0.115857E+02  0.185750E-01
     1        173     1     4  0.116043E+02  0.116043E+02  0.185750E-01
     1        174     1     6  0.116322E+02  0.116322E+02  0.278626E-01
     1        175     1     3  0.116600E+02  0.116600E+02  0.278626E-01
     1        176     1     3  0.116879E+02  0.116879E+02  0.278626E-01
     1        177     1     3  0.117297E+02  0.117297E+02  0.417939E-01
     1        178     1U    5  0.117297E+02  0.117297E+02  0.626908E-01
     1        178     2     3  0.117453E+02  0.117453E+02  0.156727E-01
     1        179     1     3  0.117610E+02  0.117610E+02  0.156727E-01
     1        180     1     3  0.117845E+02  0.117845E+02  0.235090E-01
     1        181     1     4  0.118198E+02  0.118198E+02  0.352636E-01
     1        182     1     6  0.118727E+02  0.118727E+02  0.528953E-01
     1        183     1     4  0.119256E+02  0.119256E+02  0.528953E-01
     1        184     1     6  0.119785E+02  0.119785E+02  0.528953E-01
     1        185     1     3  0.120314E+02  0.120314E+02  0.528953E-01
     1        186     1U    4  0.120314E+02  0.120314E+02  0.528953E-01
     1        186     2     3  0.120446E+02  0.120446E+02  0.132238E-01
     1        187     1     3  0.120578E+02  0.120578E+02  0.132238E-01
     1        188     1     3  0.120777E+02  0.120777E+02  0.198358E-01
     1        189     1     3  0.121074E+02  0.121074E+02  0.297536E-01
     1        190     1     4  0.121520E+02  0.121520E+02  0.446304E-01
     1        191     1     3  0.122190E+02  0.122190E+02  0.669457E-01
     1        192     1     4  0.123194E+02  0.123194E+02  0.100418E+00
     1        193     1U    4  0.123194E+02  0.123194E+02  0.150628E+00
     1        193     2     3  0.123571E+02  0.123571E+02  0.376569E-01
     1        194     1U    5  0.123571E+02  0.123571E+02  0.376569E-01
     1        194     2     3  0.123665E+02  0.123665E+02  0.941423E-02
     1        195     1     3  0.123759E+02  0.123759E+02  0.941423E-02
     1        196     1     4  0.123900E+02  0.123900E+02  0.141214E-01
     1        197     1     3  0.124112E+02  0.124112E+02  0.211820E-01
     1        198     1     3  0.124430E+02  0.124430E+02  0.317730E-01
     1        199     1     6  0.124906E+02  0.124906E+02  0.476596E-01
     1        200     1     4  0.125383E+02  0.125383E+02  0.476596E-01
     1        201     1     6  0.125859E+02  0.125859E+02  0.476596E-01
     1        202     1     4  0.126336E+02  0.126336E+02  0.476596E-01
     1        203     1     4  0.126813E+02  0.126813E+02  0.476596E-01
     1        204     1U    4  0.126813E+02  0.126813E+02  0.714893E-01
     1        204     2     3  0.126991E+02  0.126991E+02  0.178723E-01
     1        205     1     5  0.127170E+02  0.127170E+02  0.178723E-01
     1        206     1     4  0.127349E+02  0.127349E+02  0.178723E-01
     1        207     1     4  0.127528E+02  0.127528E+02  0.178723E-01
     1        208     1     4  0.127796E+02  0.127796E+02  0.268085E-01
     1        209     1     4  0.128198E+02  0.128198E+02  0.402128E-01
     1        210     1     4  0.128801E+02  0.128801E+02  0.603191E-01
     1        211     1     5  0.129706E+02  0.129706E+02  0.904787E-01
     1        212     1     3  0.130611E+02  0.130611E+02  0.904787E-01
     1        213     1     3  0.131515E+02  0.131515E+02  0.904787E-01
     1        214     1     3  0.132872E+02  0.132872E+02  0.135718E+00
     1        215     1     3  0.134908E+02  0.134908E+02  0.203577E+00
     1        216     1     3  0.137962E+02  0.137962E+02  0.305366E+00
     1        217     1U    5  0.137962E+02  0.137962E+02  0.458048E+00
     1        217     2U    4  0.137962E+02  0.137962E+02  0.114512E+00
     1        217     3     4  0.138248E+02  0.138248E+02  0.286280E-01
     1        218     1     3  0.138534E+02  0.138534E+02  0.286280E-01
     1        219     1     3  0.138964E+02  0.138964E+02  0.429420E-01
     1        220     1     3  0.139608E+02  0.139608E+02  0.644131E-01
     1        221     1     3  0.140574E+02  0.140574E+02  0.966196E-01
     1        222     1     6  0.142024E+02  0.142024E+02  0.144929E+00
     1        223     1U    4  0.142024E+02  0.142024E+02  0.144929E+00
     1        223     2     3  0.142386E+02  0.142386E+02  0.362323E-01
     1        224     1     4  0.142748E+02  0.142748E+02  0.362323E-01
     1        225     1     4  0.143292E+02  0.143292E+02  0.543485E-01
     1        226     1U    4  0.143292E+02  0.143292E+02  0.815228E-01
     1        226     2     4  0.143495E+02  0.143495E+02  0.203807E-01
     1        227     1     4  0.143699E+02  0.143699E+02  0.203807E-01
     1        228     1     4  0.144005E+02  0.144005E+02  0.305710E-01
     1        229     1U    5  0.144005E+02  0.144005E+02  0.458566E-01
     1        229     2     4  0.144120E+02  0.144120E+02  0.114641E-01
     1        230     1     4  0.144234E+02  0.144234E+02  0.114641E-01
     1        231     1     4  0.144406E+02  0.144406E+02  0.171962E-01
     1        232     1     4  0.144664E+02  0.144664E+02  0.257943E-01
     1        233     1U    4  0.144664E+02  0.144664E+02  0.386915E-01
     1        233     2     4  0.144761E+02  0.144761E+02  0.967287E-02
     1        234     1     4  0.144858E+02  0.144858E+02  0.967287E-02
     1        235     1     3  0.145003E+02  0.145003E+02  0.145093E-01
     1        236     1     5  0.145220E+02  0.145220E+02  0.217640E-01
     1        237     1     3  0.145438E+02  0.145438E+02  0.217640E-01
     1        238     1     3  0.145656E+02  0.145656E+02  0.217640E-01
     1        239     1     3  0.145982E+02  0.145982E+02  0.326459E-01
     1        240     1     3  0.146472E+02  0.146472E+02  0.489689E-01
     1        241     1     3  0.147206E+02  0.147206E+02  0.734533E-01
     1        242     1U    4  0.147206E+02  0.147206E+02  0.110180E+00
     1        242     2     3  0.147482E+02  0.147482E+02  0.275450E-01
     1        243     1     3  0.147757E+02  0.147757E+02  0.275450E-01
     1        244     1     4  0.148170E+02  0.148170E+02  0.413175E-01
     1        245     1U    5  0.148170E+02  0.148170E+02  0.619763E-01
     1        245     2     3  0.148325E+02  0.148325E+02  0.154941E-01
     1        246     1     3  0.148480E+02  0.148480E+02  0.154941E-01
     1        247     1     4  0.148713E+02  0.148713E+02  0.232411E-01
     1        248     1     3  0.149061E+02  0.149061E+02  0.348616E-01
     1        249     1     3  0.149584E+02  0.149584E+02  0.522925E-01
     1        250     1     3  0.150369E+02  0.150369E+02  0.784387E-01
     1        251     1     3  0.151545E+02  0.151545E+02  0.117658E+00
     1        252     1U    5  0.151545E+02  0.151545E+02  0.176487E+00
     1        252     2     3  0.151986E+02  0.151986E+02  0.441218E-01
     1        253     1     3  0.152428E+02  0.152428E+02  0.441218E-01
     1        254     1     3  0.153089E+02  0.153089E+02  0.661827E-01
     1        255     1     4  0.154082E+02  0.154082E+02  0.992740E-01
     1        256     1U    4  0.154082E+02  0.154082E+02  0.148911E+00
     1        256     2     3  0.154454E+02  0.154454E+02  0.372277E-01
     1        257     1     3  0.154827E+02  0.154827E+02  0.372277E-01
     1        258     1     3  0.155385E+02  0.155385E+02  0.558416E-01
     1        259     1     9  0.156223E+02  0.156223E+02  0.837624E-01
     1        260     1     3  0.157060E+02  0.157060E+02  0.837624E-01
     1        261     1U    4  0.157060E+02  0.157060E+02  0.837624E-01
     1        261     2     3  0.157270E+02  0.157270E+02  0.209406E-01
     1        262     1     4  0.157479E+02  0.157479E+02  0.209406E-01
     1        263     1     3  0.157793E+02  0.157793E+02  0.314109E-01
     1        264     1     3  0.158264E+02  0.158264E+02  0.471164E-01
     1        265     1     4  0.158971E+02  0.158971E+02  0.706745E-01
     1        266     1     4  0.160031E+02  0.160031E+02  0.106012E+00
     1        267     1     4  0.161622E+02  0.161622E+02  0.159018E+00
     1        268     1     5  0.164007E+02  0.164007E+02  0.238527E+00
     1        269     1     5  0.166392E+02  0.166392E+02  0.238527E+00
     1        270     1U    5  0.166392E+02  0.166392E+02  0.238527E+00
     1        270     2     4  0.166988E+02  0.166988E+02  0.596316E-01
     1        271     1     3  0.167585E+02  0.167585E+02  0.596316E-01
     1        272     1     3  0.168479E+02  0.168479E+02  0.894475E-01
     1        273     1U    5  0.168479E+02  0.168479E+02  0.134171E+00
     1        273     2     3  0.168815E+02  0.168815E+02  0.335428E-01
     1        274     1     3  0.169150E+02  0.169150E+02  0.335428E-01
     1        275     1     3  0.169653E+02  0.169653E+02  0.503142E-01
     1        276     1     3  0.170408E+02  0.170408E+02  0.754713E-01
     1        277     1     3  0.171540E+02  0.171540E+02  0.113207E+00
     1        278     1     4  0.173238E+02  0.173238E+02  0.169810E+00
     1        279     1U    5  0.173238E+02  0.173238E+02  0.254716E+00
     1        279     2     3  0.173875E+02  0.173875E+02  0.636789E-01
     1        280     1     3  0.174512E+02  0.174512E+02  0.636789E-01
     1        281     1U    4  0.174512E+02  0.174512E+02  0.955184E-01
     1        281     2     3  0.174750E+02  0.174750E+02  0.238796E-01
     1        282     1     3  0.174989E+02  0.174989E+02  0.238796E-01
     1        283     1     4  0.175347E+02  0.175347E+02  0.358194E-01
     1        284     1     4  0.175885E+02  0.175885E+02  0.537291E-01
     1        285     1     4  0.176691E+02  0.176691E+02  0.805936E-01
     1        286     1     4  0.177900E+02  0.177900E+02  0.120890E+00
     1        287     1     4  0.179713E+02  0.179713E+02  0.181336E+00
     1        288     1U    4  0.179713E+02  0.179713E+02  0.272003E+00
     1        288     2U    5  0.179713E+02  0.179713E+02  0.680009E-01
     1        288     3     3  0.179883E+02  0.179883E+02  0.170002E-01
     1        289     1     3  0.180053E+02  0.180053E+02  0.170002E-01
     1        290     1     3  0.180308E+02  0.180308E+02  0.255003E-01
     1        291     1U    5  0.180308E+02  0.180308E+02  0.382505E-01
     1        291     2     3  0.180404E+02  0.180404E+02  0.956262E-02
     1        292     1     4  0.180499E+02  0.180499E+02  0.956262E-02
     1        293     1     3  0.180643E+02  0.180643E+02  0.143439E-01
     1        294     1     3  0.180858E+02  0.180858E+02  0.215159E-01
     1        295     1U    5  0.180858E+02  0.180858E+02  0.322739E-01
     1        295     2     3  0.180938E+02  0.180938E+02  0.806846E-02
     1        296     1     4  0.181019E+02  0.181019E+02  0.806846E-02
     1        297     1     3  0.181140E+02  0.181140E+02  0.121027E-01
     1        298     1     3  0.181322E+02  0.181322E+02  0.181540E-01
     1        299     1     3  0.181594E+02  0.181594E+02  0.272311E-01
     1        300     1     3  0.182002E+02  0.182002E+02  0.408466E-01
     1        301     1U    5  0.182002E+02  0.182002E+02  0.612699E-01
     1        301     2U    5  0.182002E+02  0.182002E+02  0.153175E-01
     1        301     3     3  0.182041E+02  0.182041E+02  0.382937E-02
     1        302     1     3  0.182079E+02  0.182079E+02  0.382937E-02
     1        303     1     3  0.182136E+02  0.182136E+02  0.574405E-02
     1        304     1     4  0.182223E+02  0.182223E+02  0.861608E-02
     1        305     1     3  0.182352E+02  0.182352E+02  0.129241E-01
     1        306     1     3  0.182546E+02  0.182546E+02  0.193862E-01
     1        307     1     3  0.182837E+02  0.182837E+02  0.290793E-01
     1        308     1     3  0.183273E+02  0.183273E+02  0.436189E-01
     1        309     1     3  0.183927E+02  0.183927E+02  0.654283E-01
     1        310     1     3  0.184908E+02  0.184908E+02  0.981425E-01
     1        311     1U    4  0.184908E+02  0.184908E+02  0.147214E+00
     1        311     2     3  0.185276E+02  0.185276E+02  0.368034E-01
     1        312     1     4  0.185645E+02  0.185645E+02  0.368034E-01
     1        313     1     3  0.186197E+02  0.186197E+02  0.552052E-01
     1        314     1     3  0.187025E+02  0.187025E+02  0.828077E-01
     1        315     1     3  0.188267E+02  0.188267E+02  0.124212E+00
     1        316     1     5  0.190130E+02  0.190130E+02  0.186317E+00
     1        317     1     5  0.191993E+02  0.191993E+02  0.186317E+00
     1        318     1U    5  0.191993E+02  0.191993E+02  0.186317E+00
     1        318     2     4  0.192459E+02  0.192459E+02  0.465794E-01
     1        319     1     4  0.192925E+02  0.192925E+02  0.465794E-01
     1        320     1     4  0.193623E+02  0.193623E+02  0.698690E-01
     1        321     1     4  0.194671E+02  0.194671E+02  0.104804E+00
     1        322     1U    5  0.194671E+02  0.194671E+02  0.157205E+00
     1        322     2     4  0.195064E+02  0.195064E+02  0.393013E-01
     1        323     1     3  0.195457E+02  0.195457E+02  0.393013E-01
     1        324     1     3  0.196047E+02  0.196047E+02  0.589520E-01
     1        325     1     3  0.196931E+02  0.196931E+02  0.884280E-01
     1        326     1U    5  0.196931E+02  0.196931E+02  0.132642E+00
     1        326     2     4  0.197263E+02  0.197263E+02  0.331605E-01
     1        327     1     3  0.197594E+02  0.197594E+02  0.331605E-01
     1        328     1     3  0.198092E+02  0.198092E+02  0.497407E-01
     1        329     1U    5  0.198092E+02  0.198092E+02  0.746111E-01
     1        329     2     3  0.198278E+02  0.198278E+02  0.186528E-01
     1        330     1     3  0.198465E+02  0.198465E+02  0.186528E-01
     1        331     1     3  0.198745E+02  0.198745E+02  0.279792E-01
     1        332     1     3  0.199164E+02  0.199164E+02  0.419688E-01
     1        333     1U    5  0.199164E+02  0.199164E+02  0.629531E-01
     1        333     2U    4  0.199164E+02  0.199164E+02  0.157383E-01
     1        333     3     4  0.199204E+02  0.199204E+02  0.393457E-02
     1        334     1     3  0.199243E+02  0.199243E+02  0.393457E-02
     1        335     1     3  0.199302E+02  0.199302E+02  0.590186E-02
     1        336     1     3  0.199391E+02  0.199391E+02  0.885278E-02
     1        337     1     3  0.199523E+02  0.199523E+02  0.132792E-01
     1        338     1     3  0.199723E+02  0.199723E+02  0.199188E-01
     1        339     1     3  0.200021E+02  0.200021E+02  0.298781E-01
     1        340     1     3  0.200470E+02  0.200470E+02  0.448172E-01
     1        341     1U    4  0.200470E+02  0.200470E+02  0.672258E-01
     1        341     2     3  0.200638E+02  0.200638E+02  0.168065E-01
     1        342     1     4  0.200806E+02  0.200806E+02  0.168065E-01
     1        343     1     3  0.201058E+02  0.201058E+02  0.252097E-01
     1        344     1     3  0.201436E+02  0.201436E+02  0.378145E-01
     1        345     1     3  0.202003E+02  0.202003E+02  0.567218E-01
     1        346     1     3  0.202854E+02  0.202854E+02  0.850827E-01
     1        347     1     3  0.204130E+02  0.204130E+02  0.127624E+00
     1        348     1U    5  0.204130E+02  0.204130E+02  0.191436E+00
     1        348     2     3  0.204609E+02  0.204609E+02  0.478590E-01
     1        349     1U    4  0.204609E+02  0.204609E+02  0.478590E-01
     1        349     2     3  0.204728E+02  0.204728E+02  0.119648E-01
     1        350     1     3  0.204848E+02  0.204848E+02  0.119648E-01
     1        351     1     3  0.205028E+02  0.205028E+02  0.179471E-01
     1        352     1     3  0.205297E+02  0.205297E+02  0.269207E-01
     1        353     1     3  0.205701E+02  0.205701E+02  0.403810E-01
     1        354     1     3  0.206306E+02  0.206306E+02  0.605716E-01
     1        355     1     3  0.207215E+02  0.207215E+02  0.908574E-01
     1        356     1U    5  0.207215E+02  0.207215E+02  0.136286E+00
     1        356     2     3  0.207556E+02  0.207556E+02  0.340715E-01
     1        357     1     3  0.207896E+02  0.207896E+02  0.340715E-01
     1        358     1     4  0.208407E+02  0.208407E+02  0.511073E-01
     1        359     1     4  0.209174E+02  0.209174E+02  0.766609E-01
     1        360     1     4  0.210324E+02  0.210324E+02  0.114991E+00
     1        361     1     6  0.212049E+02  0.212049E+02  0.172487E+00
     1        362     1U    4  0.212049E+02  0.212049E+02  0.172487E+00
     1        362     2     3  0.212480E+02  0.212480E+02  0.431218E-01
     1        363     1     3  0.212911E+02  0.212911E+02  0.431218E-01
     1        364     1     3  0.213558E+02  0.213558E+02  0.646826E-01
     1        365     1     3  0.214528E+02  0.214528E+02  0.970239E-01
     1        366     1     3  0.215984E+02  0.215984E+02  0.145536E+00
     1        367     1U    5  0.215984E+02  0.215984E+02  0.218304E+00
     1        367     2U    5  0.215984E+02  0.215984E+02  0.545760E-01
     1        367     3     3  0.216120E+02  0.216120E+02  0.136440E-01
     1        368     1     3  0.216257E+02  0.216257E+02  0.136440E-01
     1        369     1     3  0.216461E+02  0.216461E+02  0.204660E-01
     1        370     1     3  0.216768E+02  0.216768E+02  0.306990E-01
     1        371     1     3  0.217229E+02  0.217229E+02  0.460485E-01
     1        372     1     3  0.217919E+02  0.217919E+02  0.690727E-01
     1        373     1     3  0.218955E+02  0.218955E+02  0.103609E+00
     1        374     1     3  0.220510E+02  0.220510E+02  0.155414E+00
     1        375     1     5  0.222841E+02  0.222841E+02  0.233120E+00
     1        376     1U    5  0.222841E+02  0.222841E+02  0.233120E+00
     1        376     2     3  0.223424E+02  0.223424E+02  0.582801E-01
     1        377     1     3  0.224006E+02  0.224006E+02  0.582801E-01
     1        378     1     3  0.224881E+02  0.224881E+02  0.874201E-01
     1        379     1U    4  0.224881E+02  0.224881E+02  0.131130E+00
     1        379     2     3  0.225208E+02  0.225208E+02  0.327826E-01
     1        380     1U    6  0.225208E+02  0.225208E+02  0.327826E-01
     1        380     2     3  0.225290E+02  0.225290E+02  0.819564E-02
     1        381     1     3  0.225372E+02  0.225372E+02  0.819564E-02
     1        382     1     3  0.225495E+02  0.225495E+02  0.122935E-01
     1        383     1     4  0.225680E+02  0.225680E+02  0.184402E-01
     1        384     1     3  0.225956E+02  0.225956E+02  0.276603E-01
     1        385     1     4  0.226371E+02  0.226371E+02  0.414904E-01
     1        386     1U    5  0.226371E+02  0.226371E+02  0.622356E-01
     1        386     2     3  0.226527E+02  0.226527E+02  0.155589E-01
     1        387     1     4  0.226682E+02  0.226682E+02  0.155589E-01
     1        388     1     4  0.226916E+02  0.226916E+02  0.233384E-01
     1        389     1     4  0.227266E+02  0.227266E+02  0.350075E-01
     1        390     1     3  0.227791E+02  0.227791E+02  0.525113E-01
     1        391     1     3  0.228579E+02  0.228579E+02  0.787670E-01
     1        392     1U    5  0.228579E+02  0.228579E+02  0.118150E+00
     1        392     2U    4  0.228579E+02  0.228579E+02  0.295376E-01
     1        392     3     3  0.228652E+02  0.228652E+02  0.738440E-02
     1        393     1     3  0.228726E+02  0.228726E+02  0.738440E-02
     1        394     1     3  0.228837E+02  0.228837E+02  0.110766E-01
     1        395     1     3  0.229003E+02  0.229003E+02  0.166149E-01
     1        396     1     4  0.229252E+02  0.229252E+02  0.249224E-01
     1        397     1     3  0.229626E+02  0.229626E+02  0.373835E-01
     1        398     1U    4  0.229626E+02  0.229626E+02  0.560753E-01
     1        398     2     4  0.229766E+02  0.229766E+02  0.140188E-01
     1        399     1     3  0.229907E+02  0.229907E+02  0.140188E-01
     1        400     1     6  0.230117E+02  0.230117E+02  0.210282E-01
     1        401     1     3  0.230327E+02  0.230327E+02  0.210282E-01
     1        402     1     3  0.230538E+02  0.230538E+02  0.210282E-01
     1        403     1     3  0.230853E+02  0.230853E+02  0.315424E-01
     1        404     1     3  0.231326E+02  0.231326E+02  0.473135E-01
     1        405     1U    5  0.231326E+02  0.231326E+02  0.709703E-01
     1        405     2U    5  0.231326E+02  0.231326E+02  0.177426E-01
     1        405     3     3  0.231370E+02  0.231370E+02  0.443564E-02
     1        406     1     3  0.231415E+02  0.231415E+02  0.443564E-02
     1        407     1     3  0.231481E+02  0.231481E+02  0.665347E-02
     1        408     1     4  0.231581E+02  0.231581E+02  0.998020E-02
     1        409     1     4  0.231731E+02  0.231731E+02  0.149703E-01
     1        410     1     3  0.231955E+02  0.231955E+02  0.224555E-01
     1        411     1     3  0.232292E+02  0.232292E+02  0.336832E-01
     1        412     1U    5  0.232292E+02  0.232292E+02  0.505248E-01
     1        412     2     3  0.232419E+02  0.232419E+02  0.126312E-01
     1        413     1     3  0.232545E+02  0.232545E+02  0.126312E-01
     1        414     1     3  0.232734E+02  0.232734E+02  0.189468E-01
     1        415     1     3  0.233019E+02  0.233019E+02  0.284202E-01
     1        416     1     4  0.233445E+02  0.233445E+02  0.426303E-01
     1        417     1U    4  0.233445E+02  0.233445E+02  0.639454E-01
     1        417     2     4  0.233605E+02  0.233605E+02  0.159864E-01
     1        418     1     3  0.233765E+02  0.233765E+02  0.159864E-01
     1        419     1     3  0.234004E+02  0.234004E+02  0.239795E-01
     1        420     1     3  0.234364E+02  0.234364E+02  0.359693E-01
     1        421     1U    5  0.234364E+02  0.234364E+02  0.539539E-01
     1        421     2     4  0.234499E+02  0.234499E+02  0.134885E-01
     1        422     1     3  0.234634E+02  0.234634E+02  0.134885E-01
     1        423     1     4  0.234836E+02  0.234836E+02  0.202327E-01
     1        424     1U    4  0.234836E+02  0.234836E+02  0.303491E-01
     1        424     2     3  0.234912E+02  0.234912E+02  0.758727E-02
     1        425     1     3  0.234988E+02  0.234988E+02  0.758727E-02
     1        426     1U    4  0.234988E+02  0.234988E+02  0.113809E-01
     1        426     2     3  0.235016E+02  0.235016E+02  0.284523E-02
     1        427     1     3  0.235045E+02  0.235045E+02  0.284523E-02
     1        428     1     3  0.235087E+02  0.235087E+02  0.426784E-02
     1        429     1     3  0.235151E+02  0.235151E+02  0.640176E-02
     1        430     1     3  0.235247E+02  0.235247E+02  0.960264E-02
     1        431     1     3  0.235392E+02  0.235392E+02  0.144040E-01
     1        432     1     3  0.235608E+02  0.235608E+02  0.216059E-01
     1        433     1     3  0.235932E+02  0.235932E+02  0.324089E-01
     1        434     1     4  0.236418E+02  0.236418E+02  0.486134E-01
     1        435     1U    5  0.236418E+02  0.236418E+02  0.729201E-01
     1        435     2     3  0.236600E+02  0.236600E+02  0.182300E-01
     1        436     1     3  0.236782E+02  0.236782E+02  0.182300E-01
     1        437     1     4  0.237056E+02  0.237056E+02  0.273450E-01
     1        438     1     3  0.237466E+02  0.237466E+02  0.410175E-01
     1        439     1     3  0.238081E+02  0.238081E+02  0.615263E-01
     1        440     1     3  0.239004E+02  0.239004E+02  0.922895E-01
     1        441     1     3  0.240389E+02  0.240389E+02  0.138434E+00
     1        442     1     3  0.242465E+02  0.242465E+02  0.207651E+00
     1        443     1U    5  0.242465E+02  0.242465E+02  0.311477E+00
     1        443     2     3  0.243244E+02  0.243244E+02  0.778692E-01
     1        444     1     4  0.244022E+02  0.244022E+02  0.778692E-01
     1        445     1     3  0.245190E+02  0.245190E+02  0.116804E+00
     1        446     1U    5  0.245190E+02  0.245190E+02  0.175206E+00
     1        446     2     3  0.245628E+02  0.245628E+02  0.438014E-01
     1        447     1     3  0.246067E+02  0.246067E+02  0.438014E-01
     1        448     1U    5  0.246067E+02  0.246067E+02  0.657022E-01
     1        448     2     3  0.246231E+02  0.246231E+02  0.164255E-01
     1        449     1     3  0.246395E+02  0.246395E+02  0.164255E-01
     1        450     1     6  0.246641E+02  0.246641E+02  0.246383E-01
     1        451     1     3  0.246888E+02  0.246888E+02  0.246383E-01
     1        452     1     3  0.247134E+02  0.247134E+02  0.246383E-01
     1        453     1     3  0.247504E+02  0.247504E+02  0.369575E-01
     1        454     1     5  0.248058E+02  0.248058E+02  0.554362E-01
     1        455     1     3  0.248612E+02  0.248612E+02  0.554362E-01
     1        456     1     4  0.249167E+02  0.249167E+02  0.554362E-01
     1        457     1     3  0.249998E+02  0.249998E+02  0.831543E-01
     1        458     1U    5  0.249998E+02  0.249998E+02  0.124731E+00
     1        458     2     3  0.250310E+02  0.250310E+02  0.311829E-01
     1        459     1     3  0.250622E+02  0.250622E+02  0.311829E-01
     1        460     1     3  0.251090E+02  0.251090E+02  0.467743E-01
     1        461     1     3  0.251791E+02  0.251791E+02  0.701614E-01
     1        462     1     3  0.252844E+02  0.252844E+02  0.105242E+00
     1        463     1     3  0.254422E+02  0.254422E+02  0.157863E+00
     1        464     1U    5  0.254422E+02  0.254422E+02  0.236795E+00
     1        464     2     3  0.255014E+02  0.255014E+02  0.591987E-01
     1        465     1     3  0.255606E+02  0.255606E+02  0.591987E-01
     1        466     1     3  0.256494E+02  0.256494E+02  0.887981E-01
     1        467     1     3  0.257826E+02  0.257826E+02  0.133197E+00
     1        468     1     3  0.259824E+02  0.259824E+02  0.199796E+00
     1        469     1     5  0.262821E+02  0.262821E+02  0.299693E+00
     1        470     1U    5  0.262821E+02  0.262821E+02  0.299693E+00
     1        470     2     3  0.263570E+02  0.263570E+02  0.749234E-01
     1        471     1     3  0.264320E+02  0.264320E+02  0.749234E-01
     1        472     1     3  0.265444E+02  0.265444E+02  0.112385E+00
     1        473     1U    5  0.265444E+02  0.265444E+02  0.168578E+00
     1        473     2     3  0.265865E+02  0.265865E+02  0.421444E-01
     1        474     1     3  0.266286E+02  0.266286E+02  0.421444E-01
     1        475     1     3  0.266919E+02  0.266919E+02  0.632166E-01
     1        476     1     3  0.267867E+02  0.267867E+02  0.948249E-01
     1        477     1U    4  0.267867E+02  0.267867E+02  0.142237E+00
     1        477     2     3  0.268222E+02  0.268222E+02  0.355593E-01
     1        478     1U    5  0.268222E+02  0.268222E+02  0.355593E-01
     1        478     2     3  0.268311E+02  0.268311E+02  0.888983E-02
     1        479     1     3  0.268400E+02  0.268400E+02  0.888983E-02
     1        480     1     3  0.268534E+02  0.268534E+02  0.133348E-01
     1        481     1     3  0.268734E+02  0.268734E+02  0.200021E-01
     1        482     1     3  0.269034E+02  0.269034E+02  0.300032E-01
     1        483     1     6  0.269484E+02  0.269484E+02  0.450048E-01
     1        484     1U    5  0.269484E+02  0.269484E+02  0.450048E-01
     1        484     2     4  0.269596E+02  0.269596E+02  0.112512E-01
     1        485     1     3  0.269709E+02  0.269709E+02  0.112512E-01
     1        486     1     4  0.269878E+02  0.269878E+02  0.168768E-01
     1        487     1     3  0.270131E+02  0.270131E+02  0.253152E-01
     1        488     1     3  0.270510E+02  0.270510E+02  0.379728E-01
     1        489     1     3  0.271080E+02  0.271080E+02  0.569592E-01
     1        490     1     3  0.271934E+02  0.271934E+02  0.854388E-01
     1        491     1     3  0.273216E+02  0.273216E+02  0.128158E+00
     1        492     1     6  0.275138E+02  0.275138E+02  0.192237E+00
     1        493     1U    5  0.275138E+02  0.275138E+02  0.192237E+00
     1        493     2     3  0.275619E+02  0.275619E+02  0.480593E-01
     1        494     1     5  0.276100E+02  0.276100E+02  0.480593E-01
     1        495     1     3  0.276580E+02  0.276580E+02  0.480593E-01
     1        496     1     4  0.277061E+02  0.277061E+02  0.480593E-01
     1        497     1     3  0.277782E+02  0.277782E+02  0.720890E-01
     1        498     1     3  0.278863E+02  0.278863E+02  0.108133E+00
     1        499     1     4  0.280485E+02  0.280485E+02  0.162200E+00
     1        500     1U    5  0.280485E+02  0.280485E+02  0.243300E+00
     1        500     2     3  0.281093E+02  0.281093E+02  0.608251E-01
     1        501     1     3  0.281701E+02  0.281701E+02  0.608251E-01
     1        502     1     3  0.282614E+02  0.282614E+02  0.912376E-01
     1        503     1     3  0.283982E+02  0.283982E+02  0.136856E+00
     1        504     1     4  0.286035E+02  0.286035E+02  0.205285E+00
     1        505     1U    4  0.286035E+02  0.286035E+02  0.307927E+00
     1        505     2     3  0.286805E+02  0.286805E+02  0.769817E-01
     1        506     1     3  0.287575E+02  0.287575E+02  0.769817E-01
     1        507     1     3  0.288730E+02  0.288730E+02  0.115473E+00
     1        508     1     4  0.290462E+02  0.290462E+02  0.173209E+00
     1        509     1     3  0.293060E+02  0.293060E+02  0.259813E+00
     1        510     1     5  0.296957E+02  0.296957E+02  0.389720E+00
     1        511     1U    5  0.296957E+02  0.296957E+02  0.304301E+00
     1        511     2     4  0.297718E+02  0.297718E+02  0.760753E-01
     1        512     1     3  0.298478E+02  0.298478E+02  0.760753E-01
     1        513     1     4  0.299620E+02  0.299620E+02  0.114113E+00
     1        514     1     3  0.300000E+02  0.300000E+02  0.380377E-01
