*INCLUDE, INPUT=Complete_Thin_Cylinder_Mesh.inp

** USE FREQUENCY OF 0.290487 Hz IN dflux.f FILE
*MATERIAL,NAME=Metal
*CONDUCTIVITY 
16.6
*ELASTIC
152.18E9,0.3
*EXPANSION
1.6900E-5
*SPECIFIC HEAT
5.0200E+02
*DENSITY
8.026E+03

*BOUNDARY
Base,1
*BOUNDARY
Base,2
*BOUNDARY
Base,3
*BOUNDARY
Base,4
*BOUNDARY
Base,5
*BOUNDARY
Base,6

*SHELL SECTION,MATERIAL=Metal,ELSET=Eall
0.000203

*INITIAL CONDITIONS, TYPE=TEMPERATURE
Nall,273

*PHYSICAL CONSTANTS, ABSOLUTE ZERO=0, STEFAN BOLTZMANN=5.669E-8

*STEP,INC=1000
*COUPLED TEMPERATURE-DISPLACEMENT
0.1,30

*RADIATE
CylinderSurface,RPOS,0,0.13

** Test user defined subroutine for flux
*DFLUX
CylinderSurface,S2NUy

*NODE FILE 
NT, U  
*EL FILE 
HFL
*NODE PRINT,NSET=TipMarker
U
*END STEP


