SUMMARY OF JOB INFORMATION
  STEP      INC     ATT  ITRS     TOT TIME     STEP TIME      INC TIME
     1          1     1     3  0.100000E+00  0.100000E+00  0.100000E+00
     1          2     1     5  0.200000E+00  0.200000E+00  0.100000E+00
     1          3     1     5  0.300000E+00  0.300000E+00  0.100000E+00
     1          4     1     5  0.400000E+00  0.400000E+00  0.100000E+00
     1          5     1     5  0.500000E+00  0.500000E+00  0.100000E+00
     1          6     1     5  0.600000E+00  0.600000E+00  0.100000E+00
     1          7     1     5  0.700000E+00  0.700000E+00  0.100000E+00
     1          8     1     5  0.800000E+00  0.800000E+00  0.100000E+00
     1          9     1     5  0.900000E+00  0.900000E+00  0.100000E+00
     1         10     1     5  0.100000E+01  0.100000E+01  0.100000E+00
     1         11     1     5  0.110000E+01  0.110000E+01  0.100000E+00
     1         12     1     5  0.120000E+01  0.120000E+01  0.100000E+00
     1         13     1     5  0.130000E+01  0.130000E+01  0.100000E+00
     1         14     1     5  0.140000E+01  0.140000E+01  0.100000E+00
     1         15     1     4  0.150000E+01  0.150000E+01  0.100000E+00
     1         16     1     3  0.160000E+01  0.160000E+01  0.100000E+00
     1         17     1     3  0.175000E+01  0.175000E+01  0.150000E+00
     1         18     1     5  0.197500E+01  0.197500E+01  0.225000E+00
     1         19     1     5  0.220000E+01  0.220000E+01  0.225000E+00
     1         20     1     5  0.242500E+01  0.242500E+01  0.225000E+00
     1         21     1     5  0.265000E+01  0.265000E+01  0.225000E+00
     1         22     1     5  0.287500E+01  0.287500E+01  0.225000E+00
     1         23     1     5  0.310000E+01  0.310000E+01  0.225000E+00
     1         24     1     3  0.332500E+01  0.332500E+01  0.225000E+00
     1         25     1     3  0.355000E+01  0.355000E+01  0.225000E+00
     1         26     1     5  0.388750E+01  0.388750E+01  0.337500E+00
     1         27     1     5  0.422500E+01  0.422500E+01  0.337500E+00
     1         28     1     5  0.456250E+01  0.456250E+01  0.337500E+00
     1         29     1     5  0.490000E+01  0.490000E+01  0.337500E+00
     1         30     1     3  0.523750E+01  0.523750E+01  0.337500E+00
     1         31     1     5  0.557500E+01  0.557500E+01  0.337500E+00
     1         32     1     5  0.591250E+01  0.591250E+01  0.337500E+00
     1         33     1     5  0.625000E+01  0.625000E+01  0.337500E+00
     1         34     1     5  0.658750E+01  0.658750E+01  0.337500E+00
     1         35     1     3  0.692500E+01  0.692500E+01  0.337500E+00
     1         36     1     5  0.726250E+01  0.726250E+01  0.337500E+00
     1         37     1     5  0.760000E+01  0.760000E+01  0.337500E+00
     1         38     1     5  0.793750E+01  0.793750E+01  0.337500E+00
     1         39     1     5  0.827500E+01  0.827500E+01  0.337500E+00
     1         40     1     3  0.861250E+01  0.861250E+01  0.337500E+00
     1         41     1     5  0.895000E+01  0.895000E+01  0.337500E+00
     1         42     1     5  0.928750E+01  0.928750E+01  0.337500E+00
     1         43     1     5  0.962500E+01  0.962500E+01  0.337500E+00
     1         44     1     5  0.996250E+01  0.996250E+01  0.337500E+00
     1         45     1     3  0.103000E+02  0.103000E+02  0.337500E+00
     1         46     1     5  0.106375E+02  0.106375E+02  0.337500E+00
     1         47     1     5  0.109750E+02  0.109750E+02  0.337500E+00
     1         48     1     5  0.113125E+02  0.113125E+02  0.337500E+00
     1         49     1     5  0.116500E+02  0.116500E+02  0.337500E+00
     1         50     1     3  0.119875E+02  0.119875E+02  0.337500E+00
     1         51     1     5  0.123250E+02  0.123250E+02  0.337500E+00
     1         52     1     5  0.126625E+02  0.126625E+02  0.337500E+00
     1         53     1     5  0.130000E+02  0.130000E+02  0.337500E+00
     1         54     1     5  0.133375E+02  0.133375E+02  0.337500E+00
     1         55     1     3  0.136750E+02  0.136750E+02  0.337500E+00
     1         56     1     5  0.140125E+02  0.140125E+02  0.337500E+00
     1         57     1     5  0.143500E+02  0.143500E+02  0.337500E+00
     1         58     1     5  0.146875E+02  0.146875E+02  0.337500E+00
     1         59     1     5  0.150250E+02  0.150250E+02  0.337500E+00
     1         60     1     5  0.153625E+02  0.153625E+02  0.337500E+00
     1         61     1     5  0.157000E+02  0.157000E+02  0.337500E+00
     1         62     1     5  0.160375E+02  0.160375E+02  0.337500E+00
     1         63     1     5  0.163750E+02  0.163750E+02  0.337500E+00
     1         64     1     5  0.167125E+02  0.167125E+02  0.337500E+00
     1         65     1     5  0.170500E+02  0.170500E+02  0.337500E+00
     1         66     1     5  0.173875E+02  0.173875E+02  0.337500E+00
     1         67     1     5  0.177250E+02  0.177250E+02  0.337500E+00
     1         68     1     5  0.180625E+02  0.180625E+02  0.337500E+00
     1         69     1     5  0.184000E+02  0.184000E+02  0.337500E+00
     1         70     1     5  0.187375E+02  0.187375E+02  0.337500E+00
     1         71     1     5  0.190750E+02  0.190750E+02  0.337500E+00
     1         72     1     5  0.194125E+02  0.194125E+02  0.337500E+00
     1         73     1     5  0.197500E+02  0.197500E+02  0.337500E+00
     1         74     1     5  0.200875E+02  0.200875E+02  0.337500E+00
     1         75     1     5  0.204250E+02  0.204250E+02  0.337500E+00
     1         76     1     5  0.207625E+02  0.207625E+02  0.337500E+00
     1         77     1     5  0.211000E+02  0.211000E+02  0.337500E+00
     1         78     1     5  0.214375E+02  0.214375E+02  0.337500E+00
     1         79     1     5  0.217750E+02  0.217750E+02  0.337500E+00
     1         80     1     5  0.221125E+02  0.221125E+02  0.337500E+00
     1         81     1     5  0.224500E+02  0.224500E+02  0.337500E+00
     1         82     1     5  0.227875E+02  0.227875E+02  0.337500E+00
     1         83     1     5  0.231250E+02  0.231250E+02  0.337500E+00
     1         84     1     5  0.234625E+02  0.234625E+02  0.337500E+00
     1         85     1     5  0.238000E+02  0.238000E+02  0.337500E+00
     1         86     1     5  0.241375E+02  0.241375E+02  0.337500E+00
     1         87     1     5  0.244750E+02  0.244750E+02  0.337500E+00
     1         88     1     5  0.248125E+02  0.248125E+02  0.337500E+00
     1         89     1     5  0.251500E+02  0.251500E+02  0.337500E+00
     1         90     1     5  0.254875E+02  0.254875E+02  0.337500E+00
     1         91     1     5  0.258250E+02  0.258250E+02  0.337500E+00
     1         92     1     5  0.261625E+02  0.261625E+02  0.337500E+00
     1         93     1     5  0.265000E+02  0.265000E+02  0.337500E+00
     1         94     1     5  0.268375E+02  0.268375E+02  0.337500E+00
     1         95     1     5  0.271750E+02  0.271750E+02  0.337500E+00
     1         96     1     5  0.275125E+02  0.275125E+02  0.337500E+00
     1         97     1     5  0.278500E+02  0.278500E+02  0.337500E+00
     1         98     1     5  0.281875E+02  0.281875E+02  0.337500E+00
     1         99     1     5  0.285250E+02  0.285250E+02  0.337500E+00
     1        100     1     5  0.288625E+02  0.288625E+02  0.337500E+00
     1        101     1     5  0.292000E+02  0.292000E+02  0.337500E+00
     1        102     1     4  0.295375E+02  0.295375E+02  0.337500E+00
     1        103     1     5  0.298750E+02  0.298750E+02  0.337500E+00
     1        104     1     5  0.302125E+02  0.302125E+02  0.337500E+00
     1        105     1     5  0.305500E+02  0.305500E+02  0.337500E+00
     1        106     1     5  0.308875E+02  0.308875E+02  0.337500E+00
     1        107     1     4  0.312250E+02  0.312250E+02  0.337500E+00
     1        108     1     5  0.315625E+02  0.315625E+02  0.337500E+00
     1        109     1     5  0.319000E+02  0.319000E+02  0.337500E+00
     1        110     1     5  0.322375E+02  0.322375E+02  0.337500E+00
     1        111     1     5  0.325750E+02  0.325750E+02  0.337500E+00
     1        112     1     4  0.329125E+02  0.329125E+02  0.337500E+00
     1        113     1     5  0.332500E+02  0.332500E+02  0.337500E+00
     1        114     1     5  0.335875E+02  0.335875E+02  0.337500E+00
     1        115     1     5  0.339250E+02  0.339250E+02  0.337500E+00
     1        116     1     3  0.342625E+02  0.342625E+02  0.337500E+00
     1        117     1     3  0.346000E+02  0.346000E+02  0.337500E+00
     1        118     1     5  0.351062E+02  0.351062E+02  0.506250E+00
     1        119     1     5  0.356125E+02  0.356125E+02  0.506250E+00
     1        120     1     5  0.361187E+02  0.361187E+02  0.506250E+00
     1        121     1     5  0.366250E+02  0.366250E+02  0.506250E+00
     1        122     1     5  0.371312E+02  0.371312E+02  0.506250E+00
     1        123     1     5  0.376375E+02  0.376375E+02  0.506250E+00
     1        124     1     5  0.381437E+02  0.381437E+02  0.506250E+00
     1        125     1     5  0.386500E+02  0.386500E+02  0.506250E+00
     1        126     1     5  0.391562E+02  0.391562E+02  0.506250E+00
     1        127     1     3  0.396625E+02  0.396625E+02  0.506250E+00
     1        128     1     5  0.401687E+02  0.401687E+02  0.506250E+00
     1        129     1     5  0.406750E+02  0.406750E+02  0.506250E+00
     1        130     1     3  0.411812E+02  0.411812E+02  0.506250E+00
     1        131     1     5  0.416875E+02  0.416875E+02  0.506250E+00
     1        132     1     5  0.421937E+02  0.421937E+02  0.506250E+00
     1        133     1     5  0.427000E+02  0.427000E+02  0.506250E+00
     1        134     1     5  0.432062E+02  0.432062E+02  0.506250E+00
     1        135     1     5  0.437125E+02  0.437125E+02  0.506250E+00
     1        136     1     5  0.442187E+02  0.442187E+02  0.506250E+00
     1        137     1     4  0.447250E+02  0.447250E+02  0.506250E+00
     1        138     1     5  0.452312E+02  0.452312E+02  0.506250E+00
     1        139     1     5  0.457375E+02  0.457375E+02  0.506250E+00
     1        140     1     4  0.462437E+02  0.462437E+02  0.506250E+00
     1        141     1     5  0.467500E+02  0.467500E+02  0.506250E+00
     1        142     1     5  0.472562E+02  0.472562E+02  0.506250E+00
     1        143     1     5  0.477625E+02  0.477625E+02  0.506250E+00
     1        144     1     3  0.482687E+02  0.482687E+02  0.506250E+00
     1        145     1     5  0.487750E+02  0.487750E+02  0.506250E+00
     1        146     1     5  0.492812E+02  0.492812E+02  0.506250E+00
     1        147     1     3  0.497875E+02  0.497875E+02  0.506250E+00
     1        148     1     5  0.502937E+02  0.502937E+02  0.506250E+00
     1        149     1     5  0.508000E+02  0.508000E+02  0.506250E+00
     1        150     1     5  0.513062E+02  0.513062E+02  0.506250E+00
     1        151     1     5  0.518125E+02  0.518125E+02  0.506250E+00
     1        152     1     5  0.523187E+02  0.523187E+02  0.506250E+00
     1        153     1     5  0.528250E+02  0.528250E+02  0.506250E+00
     1        154     1     3  0.533312E+02  0.533312E+02  0.506250E+00
     1        155     1     5  0.538375E+02  0.538375E+02  0.506250E+00
     1        156     1     5  0.543437E+02  0.543437E+02  0.506250E+00
     1        157     1     5  0.548500E+02  0.548500E+02  0.506250E+00
     1        158     1     5  0.553562E+02  0.553562E+02  0.506250E+00
     1        159     1     5  0.558625E+02  0.558625E+02  0.506250E+00
     1        160     1     5  0.563687E+02  0.563687E+02  0.506250E+00
     1        161     1     3  0.568750E+02  0.568750E+02  0.506250E+00
     1        162     1     5  0.573812E+02  0.573812E+02  0.506250E+00
     1        163     1     5  0.578875E+02  0.578875E+02  0.506250E+00
     1        164     1     5  0.583937E+02  0.583937E+02  0.506250E+00
     1        165     1     5  0.589000E+02  0.589000E+02  0.506250E+00
     1        166     1     5  0.594062E+02  0.594062E+02  0.506250E+00
     1        167     1     5  0.599125E+02  0.599125E+02  0.506250E+00
     1        168     1     3  0.604187E+02  0.604187E+02  0.506250E+00
     1        169     1     5  0.609250E+02  0.609250E+02  0.506250E+00
     1        170     1     5  0.614312E+02  0.614312E+02  0.506250E+00
     1        171     1     5  0.619375E+02  0.619375E+02  0.506250E+00
     1        172     1     5  0.624437E+02  0.624437E+02  0.506250E+00
     1        173     1     5  0.629500E+02  0.629500E+02  0.506250E+00
     1        174     1     5  0.634562E+02  0.634562E+02  0.506250E+00
     1        175     1     5  0.639625E+02  0.639625E+02  0.506250E+00
     1        176     1     5  0.644687E+02  0.644687E+02  0.506250E+00
     1        177     1     5  0.649750E+02  0.649750E+02  0.506250E+00
     1        178     1     5  0.654812E+02  0.654812E+02  0.506250E+00
     1        179     1     5  0.659875E+02  0.659875E+02  0.506250E+00
     1        180     1     5  0.664937E+02  0.664937E+02  0.506250E+00
     1        181     1     5  0.670000E+02  0.670000E+02  0.506250E+00
     1        182     1     5  0.675063E+02  0.675063E+02  0.506250E+00
     1        183     1     5  0.680125E+02  0.680125E+02  0.506250E+00
     1        184     1     5  0.685188E+02  0.685188E+02  0.506250E+00
     1        185     1     5  0.690250E+02  0.690250E+02  0.506250E+00
     1        186     1     5  0.695313E+02  0.695313E+02  0.506250E+00
     1        187     1     5  0.700375E+02  0.700375E+02  0.506250E+00
     1        188     1     5  0.705438E+02  0.705438E+02  0.506250E+00
     1        189     1     5  0.710500E+02  0.710500E+02  0.506250E+00
     1        190     1     5  0.715563E+02  0.715563E+02  0.506250E+00
     1        191     1     5  0.720625E+02  0.720625E+02  0.506250E+00
     1        192     1     5  0.725688E+02  0.725688E+02  0.506250E+00
     1        193     1     5  0.730750E+02  0.730750E+02  0.506250E+00
     1        194     1     5  0.735813E+02  0.735813E+02  0.506250E+00
     1        195     1     5  0.740875E+02  0.740875E+02  0.506250E+00
     1        196     1     5  0.745938E+02  0.745938E+02  0.506250E+00
     1        197     1     5  0.751000E+02  0.751000E+02  0.506250E+00
     1        198     1     5  0.756063E+02  0.756063E+02  0.506250E+00
     1        199     1     5  0.761125E+02  0.761125E+02  0.506250E+00
     1        200     1     5  0.766188E+02  0.766188E+02  0.506250E+00
     1        201     1     5  0.771250E+02  0.771250E+02  0.506250E+00
     1        202     1     5  0.776313E+02  0.776313E+02  0.506250E+00
     1        203     1     5  0.781375E+02  0.781375E+02  0.506250E+00
     1        204     1     5  0.786438E+02  0.786438E+02  0.506250E+00
     1        205     1     5  0.791500E+02  0.791500E+02  0.506250E+00
     1        206     1     5  0.796563E+02  0.796563E+02  0.506250E+00
     1        207     1     5  0.801625E+02  0.801625E+02  0.506250E+00
     1        208     1     5  0.806688E+02  0.806688E+02  0.506250E+00
     1        209     1     5  0.811750E+02  0.811750E+02  0.506250E+00
     1        210     1     5  0.816813E+02  0.816813E+02  0.506250E+00
     1        211     1     5  0.821875E+02  0.821875E+02  0.506250E+00
     1        212     1     5  0.826938E+02  0.826938E+02  0.506250E+00
     1        213     1     5  0.832000E+02  0.832000E+02  0.506250E+00
     1        214     1     5  0.837063E+02  0.837063E+02  0.506250E+00
     1        215     1     5  0.842125E+02  0.842125E+02  0.506250E+00
     1        216     1     5  0.847188E+02  0.847188E+02  0.506250E+00
     1        217     1     5  0.852250E+02  0.852250E+02  0.506250E+00
     1        218     1     5  0.857313E+02  0.857313E+02  0.506250E+00
     1        219     1     5  0.862375E+02  0.862375E+02  0.506250E+00
     1        220     1     5  0.867438E+02  0.867438E+02  0.506250E+00
     1        221     1     5  0.872500E+02  0.872500E+02  0.506250E+00
     1        222     1     5  0.877563E+02  0.877563E+02  0.506250E+00
     1        223     1     5  0.882625E+02  0.882625E+02  0.506250E+00
     1        224     1     5  0.887688E+02  0.887688E+02  0.506250E+00
     1        225     1     5  0.892750E+02  0.892750E+02  0.506250E+00
     1        226     1     4  0.897813E+02  0.897813E+02  0.506250E+00
     1        227     1     5  0.902875E+02  0.902875E+02  0.506250E+00
     1        228     1     5  0.907938E+02  0.907938E+02  0.506250E+00
     1        229     1     5  0.913000E+02  0.913000E+02  0.506250E+00
     1        230     1     5  0.918063E+02  0.918063E+02  0.506250E+00
     1        231     1     5  0.923125E+02  0.923125E+02  0.506250E+00
     1        232     1     5  0.928188E+02  0.928188E+02  0.506250E+00
     1        233     1     5  0.933250E+02  0.933250E+02  0.506250E+00
     1        234     1     5  0.938313E+02  0.938313E+02  0.506250E+00
     1        235     1     5  0.943375E+02  0.943375E+02  0.506250E+00
     1        236     1     4  0.948438E+02  0.948438E+02  0.506250E+00
     1        237     1     5  0.953500E+02  0.953500E+02  0.506250E+00
     1        238     1     5  0.958563E+02  0.958563E+02  0.506250E+00
     1        239     1     5  0.963625E+02  0.963625E+02  0.506250E+00
     1        240     1     5  0.968688E+02  0.968688E+02  0.506250E+00
     1        241     1     5  0.973750E+02  0.973750E+02  0.506250E+00
     1        242     1     5  0.978813E+02  0.978813E+02  0.506250E+00
     1        243     1     5  0.983875E+02  0.983875E+02  0.506250E+00
     1        244     1     5  0.988938E+02  0.988938E+02  0.506250E+00
     1        245     1     5  0.994000E+02  0.994000E+02  0.506250E+00
     1        246     1     4  0.999063E+02  0.999063E+02  0.506250E+00
     1        247     1     5  0.100413E+03  0.100413E+03  0.506250E+00
     1        248     1     5  0.100919E+03  0.100919E+03  0.506250E+00
     1        249     1     5  0.101425E+03  0.101425E+03  0.506250E+00
     1        250     1     5  0.101931E+03  0.101931E+03  0.506250E+00
     1        251     1     5  0.102438E+03  0.102438E+03  0.506250E+00
     1        252     1     5  0.102944E+03  0.102944E+03  0.506250E+00
     1        253     1     4  0.103450E+03  0.103450E+03  0.506250E+00
     1        254     1     5  0.103956E+03  0.103956E+03  0.506250E+00
     1        255     1     5  0.104463E+03  0.104463E+03  0.506250E+00
     1        256     1     3  0.104969E+03  0.104969E+03  0.506250E+00
     1        257     1     5  0.105475E+03  0.105475E+03  0.506250E+00
     1        258     1     5  0.105981E+03  0.105981E+03  0.506250E+00
     1        259     1     5  0.106488E+03  0.106488E+03  0.506250E+00
     1        260     1     5  0.106994E+03  0.106994E+03  0.506250E+00
     1        261     1     5  0.107500E+03  0.107500E+03  0.506250E+00
     1        262     1     5  0.108006E+03  0.108006E+03  0.506250E+00
     1        263     1     4  0.108513E+03  0.108513E+03  0.506250E+00
     1        264     1     5  0.109019E+03  0.109019E+03  0.506250E+00
     1        265     1     5  0.109525E+03  0.109525E+03  0.506250E+00
     1        266     1     5  0.110031E+03  0.110031E+03  0.506250E+00
     1        267     1     5  0.110538E+03  0.110538E+03  0.506250E+00
     1        268     1     5  0.111044E+03  0.111044E+03  0.506250E+00
     1        269     1     5  0.111550E+03  0.111550E+03  0.506250E+00
     1        270     1     4  0.112056E+03  0.112056E+03  0.506250E+00
     1        271     1     5  0.112563E+03  0.112563E+03  0.506250E+00
     1        272     1     5  0.113069E+03  0.113069E+03  0.506250E+00
     1        273     1     3  0.113575E+03  0.113575E+03  0.506250E+00
     1        274     1     5  0.114081E+03  0.114081E+03  0.506250E+00
     1        275     1     5  0.114588E+03  0.114588E+03  0.506250E+00
     1        276     1     5  0.115094E+03  0.115094E+03  0.506250E+00
     1        277     1     5  0.115600E+03  0.115600E+03  0.506250E+00
     1        278     1     5  0.116106E+03  0.116106E+03  0.506250E+00
     1        279     1     5  0.116613E+03  0.116613E+03  0.506250E+00
     1        280     1     3  0.117119E+03  0.117119E+03  0.506250E+00
     1        281     1     5  0.117625E+03  0.117625E+03  0.506250E+00
     1        282     1     5  0.118131E+03  0.118131E+03  0.506250E+00
     1        283     1     5  0.118638E+03  0.118638E+03  0.506250E+00
     1        284     1     5  0.119144E+03  0.119144E+03  0.506250E+00
     1        285     1     5  0.119650E+03  0.119650E+03  0.506250E+00
     1        286     1     5  0.120000E+03  0.120000E+03  0.350000E+00
