SUMMARY OF JOB INFORMATION
  STEP      INC     ATT  ITRS     TOT TIME     STEP TIME      INC TIME
     1          1     1     3  0.200000E+00  0.200000E+00  0.200000E+00
     1          2     1     5  0.400000E+00  0.400000E+00  0.200000E+00
     1          3     1     5  0.600000E+00  0.600000E+00  0.200000E+00
     1          4     1     5  0.800000E+00  0.800000E+00  0.200000E+00
     1          5     1     5  0.100000E+01  0.100000E+01  0.200000E+00
     1          6     1     5  0.120000E+01  0.120000E+01  0.200000E+00
     1          7     1     5  0.140000E+01  0.140000E+01  0.200000E+00
     1          8     1     5  0.160000E+01  0.160000E+01  0.200000E+00
     1          9     1     5  0.180000E+01  0.180000E+01  0.200000E+00
     1         10     1     5  0.200000E+01  0.200000E+01  0.200000E+00
     1         11     1     5  0.220000E+01  0.220000E+01  0.200000E+00
     1         12     1     5  0.240000E+01  0.240000E+01  0.200000E+00
     1         13     1     5  0.260000E+01  0.260000E+01  0.200000E+00
     1         14     1     4  0.280000E+01  0.280000E+01  0.200000E+00
     1         15     1     3  0.300000E+01  0.300000E+01  0.200000E+00
     1         16     1     4  0.320000E+01  0.320000E+01  0.200000E+00
     1         17     1     4  0.340000E+01  0.340000E+01  0.200000E+00
     1         18     1     5  0.360000E+01  0.360000E+01  0.200000E+00
     1         19     1     5  0.380000E+01  0.380000E+01  0.200000E+00
     1         20     1     5  0.400000E+01  0.400000E+01  0.200000E+00
     1         21     1     5  0.420000E+01  0.420000E+01  0.200000E+00
     1         22     1     5  0.440000E+01  0.440000E+01  0.200000E+00
     1         23     1     5  0.460000E+01  0.460000E+01  0.200000E+00
     1         24     1     5  0.480000E+01  0.480000E+01  0.200000E+00
     1         25     1     5  0.500000E+01  0.500000E+01  0.200000E+00
     1         26     1     5  0.520000E+01  0.520000E+01  0.200000E+00
     1         27     1     5  0.540000E+01  0.540000E+01  0.200000E+00
     1         28     1     5  0.560000E+01  0.560000E+01  0.200000E+00
     1         29     1     5  0.580000E+01  0.580000E+01  0.200000E+00
     1         30     1     4  0.600000E+01  0.600000E+01  0.200000E+00
     1         31     1     4  0.620000E+01  0.620000E+01  0.200000E+00
     1         32     1     3  0.640000E+01  0.640000E+01  0.200000E+00
     1         33     1     4  0.660000E+01  0.660000E+01  0.200000E+00
     1         34     1     5  0.680000E+01  0.680000E+01  0.200000E+00
     1         35     1     5  0.700000E+01  0.700000E+01  0.200000E+00
     1         36     1     5  0.720000E+01  0.720000E+01  0.200000E+00
     1         37     1     5  0.740000E+01  0.740000E+01  0.200000E+00
     1         38     1     5  0.760000E+01  0.760000E+01  0.200000E+00
     1         39     1     5  0.780000E+01  0.780000E+01  0.200000E+00
     1         40     1     5  0.800000E+01  0.800000E+01  0.200000E+00
     1         41     1     5  0.820000E+01  0.820000E+01  0.200000E+00
     1         42     1     5  0.840000E+01  0.840000E+01  0.200000E+00
     1         43     1     5  0.860000E+01  0.860000E+01  0.200000E+00
     1         44     1     5  0.880000E+01  0.880000E+01  0.200000E+00
     1         45     1     4  0.900000E+01  0.900000E+01  0.200000E+00
     1         46     1     4  0.920000E+01  0.920000E+01  0.200000E+00
     1         47     1     3  0.940000E+01  0.940000E+01  0.200000E+00
     1         48     1     3  0.960000E+01  0.960000E+01  0.200000E+00
     1         49     1     5  0.980000E+01  0.980000E+01  0.200000E+00
     1         50     1     5  0.100000E+02  0.100000E+02  0.200000E+00
     1         51     1     5  0.102000E+02  0.102000E+02  0.200000E+00
     1         52     1     5  0.104000E+02  0.104000E+02  0.200000E+00
     1         53     1     5  0.106000E+02  0.106000E+02  0.200000E+00
     1         54     1     5  0.108000E+02  0.108000E+02  0.200000E+00
     1         55     1     5  0.110000E+02  0.110000E+02  0.200000E+00
     1         56     1     5  0.112000E+02  0.112000E+02  0.200000E+00
     1         57     1     5  0.114000E+02  0.114000E+02  0.200000E+00
     1         58     1     5  0.116000E+02  0.116000E+02  0.200000E+00
     1         59     1     5  0.118000E+02  0.118000E+02  0.200000E+00
     1         60     1     5  0.120000E+02  0.120000E+02  0.200000E+00
     1         61     1     4  0.122000E+02  0.122000E+02  0.200000E+00
     1         62     1     4  0.124000E+02  0.124000E+02  0.200000E+00
     1         63     1     3  0.126000E+02  0.126000E+02  0.200000E+00
     1         64     1     4  0.128000E+02  0.128000E+02  0.200000E+00
     1         65     1     5  0.130000E+02  0.130000E+02  0.200000E+00
     1         66     1     5  0.132000E+02  0.132000E+02  0.200000E+00
     1         67     1     5  0.134000E+02  0.134000E+02  0.200000E+00
     1         68     1     5  0.136000E+02  0.136000E+02  0.200000E+00
     1         69     1     5  0.138000E+02  0.138000E+02  0.200000E+00
     1         70     1     5  0.140000E+02  0.140000E+02  0.200000E+00
     1         71     1     5  0.142000E+02  0.142000E+02  0.200000E+00
     1         72     1     5  0.144000E+02  0.144000E+02  0.200000E+00
     1         73     1     5  0.146000E+02  0.146000E+02  0.200000E+00
     1         74     1     5  0.148000E+02  0.148000E+02  0.200000E+00
     1         75     1     5  0.150000E+02  0.150000E+02  0.200000E+00
     1         76     1     5  0.152000E+02  0.152000E+02  0.200000E+00
     1         77     1     4  0.154000E+02  0.154000E+02  0.200000E+00
     1         78     1     4  0.156000E+02  0.156000E+02  0.200000E+00
     1         79     1     3  0.158000E+02  0.158000E+02  0.200000E+00
     1         80     1     4  0.160000E+02  0.160000E+02  0.200000E+00
     1         81     1     5  0.162000E+02  0.162000E+02  0.200000E+00
     1         82     1     5  0.164000E+02  0.164000E+02  0.200000E+00
     1         83     1     5  0.166000E+02  0.166000E+02  0.200000E+00
     1         84     1     5  0.168000E+02  0.168000E+02  0.200000E+00
     1         85     1     5  0.170000E+02  0.170000E+02  0.200000E+00
     1         86     1     5  0.172000E+02  0.172000E+02  0.200000E+00
     1         87     1     5  0.174000E+02  0.174000E+02  0.200000E+00
     1         88     1     5  0.176000E+02  0.176000E+02  0.200000E+00
     1         89     1     5  0.178000E+02  0.178000E+02  0.200000E+00
     1         90     1     5  0.180000E+02  0.180000E+02  0.200000E+00
     1         91     1     5  0.182000E+02  0.182000E+02  0.200000E+00
     1         92     1     5  0.184000E+02  0.184000E+02  0.200000E+00
     1         93     1     4  0.186000E+02  0.186000E+02  0.200000E+00
     1         94     1     4  0.188000E+02  0.188000E+02  0.200000E+00
     1         95     1     4  0.190000E+02  0.190000E+02  0.200000E+00
     1         96     1     5  0.192000E+02  0.192000E+02  0.200000E+00
     1         97     1     5  0.194000E+02  0.194000E+02  0.200000E+00
     1         98     1     5  0.196000E+02  0.196000E+02  0.200000E+00
     1         99     1     5  0.198000E+02  0.198000E+02  0.200000E+00
     1        100     1     5  0.200000E+02  0.200000E+02  0.200000E+00
     1        101     1     5  0.202000E+02  0.202000E+02  0.200000E+00
     1        102     1     5  0.204000E+02  0.204000E+02  0.200000E+00
     1        103     1     5  0.206000E+02  0.206000E+02  0.200000E+00
     1        104     1     5  0.208000E+02  0.208000E+02  0.200000E+00
     1        105     1     5  0.210000E+02  0.210000E+02  0.200000E+00
     1        106     1     5  0.212000E+02  0.212000E+02  0.200000E+00
     1        107     1     5  0.214000E+02  0.214000E+02  0.200000E+00
     1        108     1     4  0.216000E+02  0.216000E+02  0.200000E+00
     1        109     1     4  0.218000E+02  0.218000E+02  0.200000E+00
     1        110     1     3  0.220000E+02  0.220000E+02  0.200000E+00
     1        111     1     4  0.222000E+02  0.222000E+02  0.200000E+00
     1        112     1     5  0.224000E+02  0.224000E+02  0.200000E+00
     1        113     1     5  0.226000E+02  0.226000E+02  0.200000E+00
     1        114     1     5  0.228000E+02  0.228000E+02  0.200000E+00
     1        115     1     5  0.230000E+02  0.230000E+02  0.200000E+00
     1        116     1     5  0.232000E+02  0.232000E+02  0.200000E+00
     1        117     1     5  0.234000E+02  0.234000E+02  0.200000E+00
     1        118     1     5  0.236000E+02  0.236000E+02  0.200000E+00
     1        119     1     5  0.238000E+02  0.238000E+02  0.200000E+00
     1        120     1     5  0.240000E+02  0.240000E+02  0.200000E+00
     1        121     1     5  0.242000E+02  0.242000E+02  0.200000E+00
     1        122     1     5  0.244000E+02  0.244000E+02  0.200000E+00
     1        123     1     5  0.246000E+02  0.246000E+02  0.200000E+00
     1        124     1     4  0.248000E+02  0.248000E+02  0.200000E+00
     1        125     1     4  0.250000E+02  0.250000E+02  0.200000E+00
     1        126     1     4  0.252000E+02  0.252000E+02  0.200000E+00
     1        127     1     4  0.254000E+02  0.254000E+02  0.200000E+00
     1        128     1     5  0.256000E+02  0.256000E+02  0.200000E+00
     1        129     1     5  0.258000E+02  0.258000E+02  0.200000E+00
     1        130     1     5  0.260000E+02  0.260000E+02  0.200000E+00
     1        131     1     5  0.262000E+02  0.262000E+02  0.200000E+00
     1        132     1     5  0.264000E+02  0.264000E+02  0.200000E+00
     1        133     1     5  0.266000E+02  0.266000E+02  0.200000E+00
     1        134     1     5  0.268000E+02  0.268000E+02  0.200000E+00
     1        135     1     5  0.270000E+02  0.270000E+02  0.200000E+00
     1        136     1     5  0.272000E+02  0.272000E+02  0.200000E+00
     1        137     1     5  0.274000E+02  0.274000E+02  0.200000E+00
     1        138     1     5  0.276000E+02  0.276000E+02  0.200000E+00
     1        139     1     5  0.278000E+02  0.278000E+02  0.200000E+00
     1        140     1     4  0.280000E+02  0.280000E+02  0.200000E+00
     1        141     1     4  0.282000E+02  0.282000E+02  0.200000E+00
     1        142     1     3  0.284000E+02  0.284000E+02  0.200000E+00
     1        143     1     4  0.286000E+02  0.286000E+02  0.200000E+00
     1        144     1     5  0.288000E+02  0.288000E+02  0.200000E+00
     1        145     1     5  0.290000E+02  0.290000E+02  0.200000E+00
     1        146     1     5  0.292000E+02  0.292000E+02  0.200000E+00
     1        147     1     5  0.294000E+02  0.294000E+02  0.200000E+00
     1        148     1     5  0.296000E+02  0.296000E+02  0.200000E+00
     1        149     1     5  0.298000E+02  0.298000E+02  0.200000E+00
     1        150     1     5  0.300000E+02  0.300000E+02  0.200000E+00
     1        151     1     5  0.302000E+02  0.302000E+02  0.200000E+00
     1        152     1     5  0.304000E+02  0.304000E+02  0.200000E+00
     1        153     1     5  0.306000E+02  0.306000E+02  0.200000E+00
     1        154     1     5  0.308000E+02  0.308000E+02  0.200000E+00
     1        155     1     4  0.310000E+02  0.310000E+02  0.200000E+00
     1        156     1     4  0.312000E+02  0.312000E+02  0.200000E+00
     1        157     1     3  0.314000E+02  0.314000E+02  0.200000E+00
     1        158     1     4  0.316000E+02  0.316000E+02  0.200000E+00
     1        159     1     5  0.318000E+02  0.318000E+02  0.200000E+00
     1        160     1     5  0.320000E+02  0.320000E+02  0.200000E+00
     1        161     1     5  0.322000E+02  0.322000E+02  0.200000E+00
     1        162     1     5  0.324000E+02  0.324000E+02  0.200000E+00
     1        163     1     5  0.326000E+02  0.326000E+02  0.200000E+00
     1        164     1     5  0.328000E+02  0.328000E+02  0.200000E+00
     1        165     1     5  0.330000E+02  0.330000E+02  0.200000E+00
     1        166     1     5  0.332000E+02  0.332000E+02  0.200000E+00
     1        167     1     5  0.334000E+02  0.334000E+02  0.200000E+00
     1        168     1     5  0.336000E+02  0.336000E+02  0.200000E+00
     1        169     1     5  0.338000E+02  0.338000E+02  0.200000E+00
     1        170     1     5  0.340000E+02  0.340000E+02  0.200000E+00
     1        171     1     4  0.342000E+02  0.342000E+02  0.200000E+00
     1        172     1     4  0.344000E+02  0.344000E+02  0.200000E+00
     1        173     1     4  0.346000E+02  0.346000E+02  0.200000E+00
     1        174     1     4  0.348000E+02  0.348000E+02  0.200000E+00
     1        175     1     5  0.350000E+02  0.350000E+02  0.200000E+00
     1        176     1     5  0.352000E+02  0.352000E+02  0.200000E+00
     1        177     1     5  0.354000E+02  0.354000E+02  0.200000E+00
     1        178     1     5  0.356000E+02  0.356000E+02  0.200000E+00
     1        179     1     5  0.358000E+02  0.358000E+02  0.200000E+00
     1        180     1     5  0.360000E+02  0.360000E+02  0.200000E+00
     1        181     1     5  0.362000E+02  0.362000E+02  0.200000E+00
     1        182     1     5  0.364000E+02  0.364000E+02  0.200000E+00
     1        183     1     5  0.366000E+02  0.366000E+02  0.200000E+00
     1        184     1     5  0.368000E+02  0.368000E+02  0.200000E+00
     1        185     1     5  0.370000E+02  0.370000E+02  0.200000E+00
     1        186     1     5  0.372000E+02  0.372000E+02  0.200000E+00
     1        187     1     4  0.374000E+02  0.374000E+02  0.200000E+00
     1        188     1     4  0.376000E+02  0.376000E+02  0.200000E+00
     1        189     1     3  0.378000E+02  0.378000E+02  0.200000E+00
     1        190     1     4  0.380000E+02  0.380000E+02  0.200000E+00
     1        191     1     5  0.382000E+02  0.382000E+02  0.200000E+00
     1        192     1     5  0.384000E+02  0.384000E+02  0.200000E+00
     1        193     1     5  0.386000E+02  0.386000E+02  0.200000E+00
     1        194     1     5  0.388000E+02  0.388000E+02  0.200000E+00
     1        195     1     5  0.390000E+02  0.390000E+02  0.200000E+00
     1        196     1     5  0.392000E+02  0.392000E+02  0.200000E+00
     1        197     1     5  0.394000E+02  0.394000E+02  0.200000E+00
     1        198     1     5  0.396000E+02  0.396000E+02  0.200000E+00
     1        199     1     5  0.398000E+02  0.398000E+02  0.200000E+00
     1        200     1     5  0.400000E+02  0.400000E+02  0.200000E+00
     1        201     1     5  0.402000E+02  0.402000E+02  0.200000E+00
     1        202     1     4  0.404000E+02  0.404000E+02  0.200000E+00
     1        203     1     4  0.406000E+02  0.406000E+02  0.200000E+00
     1        204     1     3  0.408000E+02  0.408000E+02  0.200000E+00
     1        205     1     4  0.410000E+02  0.410000E+02  0.200000E+00
     1        206     1     5  0.412000E+02  0.412000E+02  0.200000E+00
     1        207     1     5  0.414000E+02  0.414000E+02  0.200000E+00
     1        208     1     5  0.416000E+02  0.416000E+02  0.200000E+00
     1        209     1     5  0.418000E+02  0.418000E+02  0.200000E+00
     1        210     1     5  0.420000E+02  0.420000E+02  0.200000E+00
     1        211     1     5  0.422000E+02  0.422000E+02  0.200000E+00
     1        212     1     5  0.424000E+02  0.424000E+02  0.200000E+00
     1        213     1     5  0.426000E+02  0.426000E+02  0.200000E+00
     1        214     1     5  0.428000E+02  0.428000E+02  0.200000E+00
     1        215     1     5  0.430000E+02  0.430000E+02  0.200000E+00
     1        216     1     5  0.432000E+02  0.432000E+02  0.200000E+00
     1        217     1     5  0.434000E+02  0.434000E+02  0.200000E+00
     1        218     1     4  0.436000E+02  0.436000E+02  0.200000E+00
     1        219     1     4  0.438000E+02  0.438000E+02  0.200000E+00
     1        220     1     3  0.440000E+02  0.440000E+02  0.200000E+00
     1        221     1     4  0.442000E+02  0.442000E+02  0.200000E+00
     1        222     1     5  0.444000E+02  0.444000E+02  0.200000E+00
     1        223     1     5  0.446000E+02  0.446000E+02  0.200000E+00
     1        224     1     5  0.448000E+02  0.448000E+02  0.200000E+00
     1        225     1     5  0.450000E+02  0.450000E+02  0.200000E+00
     1        226     1     5  0.452000E+02  0.452000E+02  0.200000E+00
     1        227     1     5  0.454000E+02  0.454000E+02  0.200000E+00
     1        228     1     5  0.456000E+02  0.456000E+02  0.200000E+00
     1        229     1     5  0.458000E+02  0.458000E+02  0.200000E+00
     1        230     1     5  0.460000E+02  0.460000E+02  0.200000E+00
     1        231     1     5  0.462000E+02  0.462000E+02  0.200000E+00
     1        232     1     5  0.464000E+02  0.464000E+02  0.200000E+00
     1        233     1     5  0.466000E+02  0.466000E+02  0.200000E+00
     1        234     1     4  0.468000E+02  0.468000E+02  0.200000E+00
     1        235     1     4  0.470000E+02  0.470000E+02  0.200000E+00
     1        236     1     3  0.472000E+02  0.472000E+02  0.200000E+00
     1        237     1     4  0.474000E+02  0.474000E+02  0.200000E+00
     1        238     1     5  0.476000E+02  0.476000E+02  0.200000E+00
     1        239     1     5  0.478000E+02  0.478000E+02  0.200000E+00
     1        240     1     5  0.480000E+02  0.480000E+02  0.200000E+00
     1        241     1     5  0.482000E+02  0.482000E+02  0.200000E+00
     1        242     1     5  0.484000E+02  0.484000E+02  0.200000E+00
     1        243     1     5  0.486000E+02  0.486000E+02  0.200000E+00
     1        244     1     5  0.488000E+02  0.488000E+02  0.200000E+00
     1        245     1     5  0.490000E+02  0.490000E+02  0.200000E+00
     1        246     1     5  0.492000E+02  0.492000E+02  0.200000E+00
     1        247     1     5  0.494000E+02  0.494000E+02  0.200000E+00
     1        248     1     5  0.496000E+02  0.496000E+02  0.200000E+00
     1        249     1     5  0.498000E+02  0.498000E+02  0.200000E+00
     1        250     1     4  0.500000E+02  0.500000E+02  0.200000E+00
     1        251     1     4  0.502000E+02  0.502000E+02  0.200000E+00
     1        252     1     4  0.504000E+02  0.504000E+02  0.200000E+00
     1        253     1     4  0.506000E+02  0.506000E+02  0.200000E+00
     1        254     1     5  0.508000E+02  0.508000E+02  0.200000E+00
     1        255     1     5  0.510000E+02  0.510000E+02  0.200000E+00
     1        256     1     5  0.512000E+02  0.512000E+02  0.200000E+00
     1        257     1     5  0.514000E+02  0.514000E+02  0.200000E+00
     1        258     1     5  0.516000E+02  0.516000E+02  0.200000E+00
     1        259     1     5  0.518000E+02  0.518000E+02  0.200000E+00
     1        260     1     5  0.520000E+02  0.520000E+02  0.200000E+00
     1        261     1     5  0.522000E+02  0.522000E+02  0.200000E+00
     1        262     1     5  0.524000E+02  0.524000E+02  0.200000E+00
     1        263     1     5  0.526000E+02  0.526000E+02  0.200000E+00
     1        264     1     5  0.528000E+02  0.528000E+02  0.200000E+00
     1        265     1     4  0.530000E+02  0.530000E+02  0.200000E+00
     1        266     1     4  0.532000E+02  0.532000E+02  0.200000E+00
     1        267     1     3  0.534000E+02  0.534000E+02  0.200000E+00
     1        268     1     4  0.536000E+02  0.536000E+02  0.200000E+00
     1        269     1     5  0.538000E+02  0.538000E+02  0.200000E+00
     1        270     1     5  0.540000E+02  0.540000E+02  0.200000E+00
     1        271     1     5  0.542000E+02  0.542000E+02  0.200000E+00
     1        272     1     5  0.544000E+02  0.544000E+02  0.200000E+00
     1        273     1     5  0.546000E+02  0.546000E+02  0.200000E+00
     1        274     1     5  0.548000E+02  0.548000E+02  0.200000E+00
     1        275     1     5  0.550000E+02  0.550000E+02  0.200000E+00
     1        276     1     5  0.552000E+02  0.552000E+02  0.200000E+00
     1        277     1     5  0.554000E+02  0.554000E+02  0.200000E+00
     1        278     1     5  0.556000E+02  0.556000E+02  0.200000E+00
     1        279     1     5  0.558000E+02  0.558000E+02  0.200000E+00
     1        280     1     5  0.560000E+02  0.560000E+02  0.200000E+00
     1        281     1     4  0.562000E+02  0.562000E+02  0.200000E+00
     1        282     1     4  0.564000E+02  0.564000E+02  0.200000E+00
     1        283     1     4  0.566000E+02  0.566000E+02  0.200000E+00
     1        284     1     4  0.568000E+02  0.568000E+02  0.200000E+00
     1        285     1     5  0.570000E+02  0.570000E+02  0.200000E+00
     1        286     1     5  0.572000E+02  0.572000E+02  0.200000E+00
     1        287     1     5  0.574000E+02  0.574000E+02  0.200000E+00
     1        288     1     5  0.576000E+02  0.576000E+02  0.200000E+00
     1        289     1     5  0.578000E+02  0.578000E+02  0.200000E+00
     1        290     1     5  0.580000E+02  0.580000E+02  0.200000E+00
     1        291     1     5  0.582000E+02  0.582000E+02  0.200000E+00
     1        292     1     5  0.584000E+02  0.584000E+02  0.200000E+00
     1        293     1     5  0.586000E+02  0.586000E+02  0.200000E+00
     1        294     1     5  0.588000E+02  0.588000E+02  0.200000E+00
     1        295     1     5  0.590000E+02  0.590000E+02  0.200000E+00
     1        296     1     5  0.592000E+02  0.592000E+02  0.200000E+00
     1        297     1     4  0.594000E+02  0.594000E+02  0.200000E+00
     1        298     1     4  0.596000E+02  0.596000E+02  0.200000E+00
     1        299     1     3  0.598000E+02  0.598000E+02  0.200000E+00
     1        300     1     4  0.600000E+02  0.600000E+02  0.200000E+00
