SUMMARY OF JOB INFORMATION
  STEP      INC     ATT  ITRS     TOT TIME     STEP TIME      INC TIME
     1          1     1     3  0.100000E+00  0.100000E+00  0.100000E+00
     1          2     1     5  0.200000E+00  0.200000E+00  0.100000E+00
     1          3     1     5  0.300000E+00  0.300000E+00  0.100000E+00
     1          4     1U    5  0.300000E+00  0.300000E+00  0.100000E+00
     1          4     2     6  0.325000E+00  0.325000E+00  0.250000E-01
     1          5     1     3  0.350000E+00  0.350000E+00  0.250000E-01
     1          6     1     4  0.375000E+00  0.375000E+00  0.250000E-01
     1          7     1     5  0.412500E+00  0.412500E+00  0.375000E-01
     1          8     1     4  0.450000E+00  0.450000E+00  0.375000E-01
     1          9     1     4  0.487500E+00  0.487500E+00  0.375000E-01
     1         10     1     5  0.543750E+00  0.543750E+00  0.562500E-01
     1         11     1     5  0.600000E+00  0.600000E+00  0.562500E-01
     1         12     1     5  0.656250E+00  0.656250E+00  0.562500E-01
     1         13     1     5  0.712500E+00  0.712500E+00  0.562500E-01
     1         14     1     5  0.768750E+00  0.768750E+00  0.562500E-01
     1         15     1     5  0.825000E+00  0.825000E+00  0.562500E-01
     1         16     1U    4  0.825000E+00  0.825000E+00  0.562500E-01
     1         16     2     4  0.839063E+00  0.839063E+00  0.140625E-01
     1         17     1     3  0.853125E+00  0.853125E+00  0.140625E-01
     1         18     1U    5  0.853125E+00  0.853125E+00  0.210938E-01
     1         18     2     3  0.858398E+00  0.858398E+00  0.527344E-02
     1         19     1     3  0.863672E+00  0.863672E+00  0.527344E-02
     1         20     1     3  0.871582E+00  0.871582E+00  0.791016E-02
     1         21     1     5  0.883447E+00  0.883447E+00  0.118652E-01
     1         22     1     4  0.895313E+00  0.895313E+00  0.118652E-01
     1         23     1U    5  0.895313E+00  0.895313E+00  0.118652E-01
     1         23     2     4  0.898279E+00  0.898279E+00  0.296631E-02
     1         24     1     3  0.901245E+00  0.901245E+00  0.296631E-02
     1         25     1     3  0.905695E+00  0.905695E+00  0.444946E-02
     1         26     1U    6  0.905695E+00  0.905695E+00  0.667419E-02
     1         26     2     3  0.907363E+00  0.907363E+00  0.166855E-02
     1         27     1     3  0.909032E+00  0.909032E+00  0.166855E-02
     1         28     1     3  0.911535E+00  0.911535E+00  0.250282E-02
     1         29     1     3  0.915289E+00  0.915289E+00  0.375423E-02
     1         30     1     3  0.920920E+00  0.920920E+00  0.563135E-02
     1         31     1     3  0.929367E+00  0.929367E+00  0.844703E-02
     1         32     1     3  0.942038E+00  0.942038E+00  0.126705E-01
     1         33     1     3  0.961043E+00  0.961043E+00  0.190058E-01
     1         34     1     4  0.989552E+00  0.989552E+00  0.285087E-01
     1         35     1     4  0.103232E+01  0.103232E+01  0.427631E-01
     1         36     1     7  0.109646E+01  0.109646E+01  0.641446E-01
     1         37     1     5  0.116060E+01  0.116060E+01  0.641446E-01
     1         38     1     6  0.122475E+01  0.122475E+01  0.641446E-01
     1         39     1U    5  0.122475E+01  0.122475E+01  0.641446E-01
     1         39     2     3  0.124079E+01  0.124079E+01  0.160362E-01
     1         40     1     3  0.125682E+01  0.125682E+01  0.160362E-01
     1         41     1     3  0.128088E+01  0.128088E+01  0.240542E-01
     1         42     1     3  0.131696E+01  0.131696E+01  0.360813E-01
     1         43     1     5  0.137108E+01  0.137108E+01  0.541220E-01
     1         44     1     3  0.142520E+01  0.142520E+01  0.541220E-01
     1         45     1     3  0.147932E+01  0.147932E+01  0.541220E-01
     1         46     1     3  0.156051E+01  0.156051E+01  0.811830E-01
     1         47     1     4  0.168228E+01  0.168228E+01  0.121775E+00
     1         48     1U    5  0.168228E+01  0.168228E+01  0.182662E+00
     1         48     2     4  0.172795E+01  0.172795E+01  0.456655E-01
     1         49     1     4  0.177361E+01  0.177361E+01  0.456655E-01
     1         50     1     4  0.184211E+01  0.184211E+01  0.684982E-01
     1         51     1     5  0.194486E+01  0.194486E+01  0.102747E+00
     1         52     1U    5  0.194486E+01  0.194486E+01  0.102747E+00
     1         52     2     4  0.197054E+01  0.197054E+01  0.256868E-01
     1         53     1     6  0.199623E+01  0.199623E+01  0.256868E-01
     1         54     1     4  0.202192E+01  0.202192E+01  0.256868E-01
     1         55     1     4  0.204760E+01  0.204760E+01  0.256868E-01
     1         56     1     4  0.208613E+01  0.208613E+01  0.385302E-01
     1         57     1     4  0.214393E+01  0.214393E+01  0.577953E-01
     1         58     1     5  0.223062E+01  0.223062E+01  0.866930E-01
     1         59     1U    9  0.223062E+01  0.223062E+01  0.866930E-01
     1         59     2U    5  0.223062E+01  0.223062E+01  0.216733E-01
     1         59     3     4  0.223604E+01  0.223604E+01  0.541831E-02
     1         60     1     4  0.224146E+01  0.224146E+01  0.541831E-02
     1         61     1     3  0.224959E+01  0.224959E+01  0.812747E-02
     1         62     1     3  0.226178E+01  0.226178E+01  0.121912E-01
     1         63     1     3  0.228006E+01  0.228006E+01  0.182868E-01
     1         64     1     6  0.230750E+01  0.230750E+01  0.274302E-01
     1         65     1     5  0.233493E+01  0.233493E+01  0.274302E-01
     1         66     1     4  0.236236E+01  0.236236E+01  0.274302E-01
     1         67     1     4  0.238979E+01  0.238979E+01  0.274302E-01
     1         68     1     5  0.243093E+01  0.243093E+01  0.411453E-01
     1         69     1     4  0.247208E+01  0.247208E+01  0.411453E-01
     1         70     1     4  0.251322E+01  0.251322E+01  0.411453E-01
     1         71     1U    5  0.251322E+01  0.251322E+01  0.617180E-01
     1         71     2U    5  0.251322E+01  0.251322E+01  0.154295E-01
     1         71     3     3  0.251708E+01  0.251708E+01  0.385737E-02
     1         72     1     3  0.252094E+01  0.252094E+01  0.385737E-02
     1         73     1     3  0.252672E+01  0.252672E+01  0.578606E-02
     1         74     1     3  0.253540E+01  0.253540E+01  0.867909E-02
     1         75     1     3  0.254842E+01  0.254842E+01  0.130186E-01
     1         76     1     4  0.256795E+01  0.256795E+01  0.195280E-01
     1         77     1     4  0.259724E+01  0.259724E+01  0.292919E-01
     1         78     1     4  0.264118E+01  0.264118E+01  0.439379E-01
     1         79     1     6  0.270708E+01  0.270708E+01  0.659068E-01
     1         80     1     4  0.277299E+01  0.277299E+01  0.659068E-01
     1         81     1     4  0.283890E+01  0.283890E+01  0.659068E-01
     1         82     1     4  0.293776E+01  0.293776E+01  0.988603E-01
     1         83     1     3  0.308605E+01  0.308605E+01  0.148290E+00
     1         84     1     5  0.330848E+01  0.330848E+01  0.222436E+00
     1         85     1     5  0.353092E+01  0.353092E+01  0.222436E+00
     1         86     1     5  0.375336E+01  0.375336E+01  0.222436E+00
     1         87     1     5  0.397579E+01  0.397579E+01  0.222436E+00
     1         88     1     5  0.419823E+01  0.419823E+01  0.222436E+00
     1         89     1     5  0.442066E+01  0.442066E+01  0.222436E+00
     1         90     1     3  0.464310E+01  0.464310E+01  0.222436E+00
     1         91     1     5  0.486553E+01  0.486553E+01  0.222436E+00
     1         92     1U    4  0.486553E+01  0.486553E+01  0.222436E+00
     1         92     2     4  0.492114E+01  0.492114E+01  0.556089E-01
     1         93     1     3  0.497675E+01  0.497675E+01  0.556089E-01
     1         94     1     4  0.506016E+01  0.506016E+01  0.834133E-01
     1         95     1U    5  0.506016E+01  0.506016E+01  0.125120E+00
     1         95     2     4  0.509144E+01  0.509144E+01  0.312800E-01
     1         96     1     3  0.512272E+01  0.512272E+01  0.312800E-01
     1         97     1     4  0.516964E+01  0.516964E+01  0.469200E-01
     1         98     1     4  0.524002E+01  0.524002E+01  0.703800E-01
     1         99     1     5  0.534559E+01  0.534559E+01  0.105570E+00
     1        100     1     5  0.545116E+01  0.545116E+01  0.105570E+00
