SUMMARY OF JOB INFORMATION
  STEP      INC     ATT  ITRS     TOT TIME     STEP TIME      INC TIME
     1          1     1     3  0.100000E+00  0.100000E+00  0.100000E+00
     1          2     1U    5  0.100000E+00  0.100000E+00  0.100000E+00
     1          2     2     3  0.125000E+00  0.125000E+00  0.250000E-01
     1          3     1     3  0.150000E+00  0.150000E+00  0.250000E-01
     1          4     1     3  0.187500E+00  0.187500E+00  0.375000E-01
     1          5     1     3  0.243750E+00  0.243750E+00  0.562500E-01
     1          6     1     5  0.328125E+00  0.328125E+00  0.843750E-01
     1          7     1U    5  0.328125E+00  0.328125E+00  0.843750E-01
     1          7     2     4  0.349219E+00  0.349219E+00  0.210937E-01
     1          8     1     3  0.370313E+00  0.370313E+00  0.210937E-01
     1          9     1     3  0.401953E+00  0.401953E+00  0.316406E-01
     1         10     1     5  0.449414E+00  0.449414E+00  0.474609E-01
     1         11     1     5  0.496875E+00  0.496875E+00  0.474609E-01
     1         12     1     5  0.544336E+00  0.544336E+00  0.474609E-01
     1         13     1U    5  0.544336E+00  0.544336E+00  0.474609E-01
     1         13     2     3  0.556201E+00  0.556201E+00  0.118652E-01
     1         14     1     3  0.568066E+00  0.568066E+00  0.118652E-01
     1         15     1     3  0.585864E+00  0.585864E+00  0.177979E-01
     1         16     1     3  0.612561E+00  0.612561E+00  0.266968E-01
     1         17     1     4  0.652606E+00  0.652606E+00  0.400452E-01
     1         18     1     5  0.712674E+00  0.712674E+00  0.600677E-01
     1         19     1     5  0.772742E+00  0.772742E+00  0.600677E-01
     1         20     1     5  0.832809E+00  0.832809E+00  0.600677E-01
     1         21     1     5  0.892877E+00  0.892877E+00  0.600677E-01
     1         22     1U    7  0.892877E+00  0.892877E+00  0.600677E-01
     1         22     2     3  0.907894E+00  0.907894E+00  0.150169E-01
     1         23     1     3  0.922911E+00  0.922911E+00  0.150169E-01
     1         24     1     3  0.945436E+00  0.945436E+00  0.225254E-01
     1         25     1     4  0.979225E+00  0.979225E+00  0.337881E-01
     1         26     1U    5  0.979225E+00  0.979225E+00  0.506822E-01
     1         26     2     3  0.991895E+00  0.991895E+00  0.126705E-01
     1         27     1     3  0.100457E+01  0.100457E+01  0.126705E-01
     1         28     1     3  0.102357E+01  0.102357E+01  0.190058E-01
     1         29     1U    5  0.102357E+01  0.102357E+01  0.285087E-01
     1         29     2     4  0.103070E+01  0.103070E+01  0.712718E-02
     1         30     1     3  0.103783E+01  0.103783E+01  0.712718E-02
     1         31     1     3  0.104852E+01  0.104852E+01  0.106908E-01
     1         32     1     3  0.106455E+01  0.106455E+01  0.160362E-01
     1         33     1     4  0.108861E+01  0.108861E+01  0.240542E-01
     1         34     1     4  0.112469E+01  0.112469E+01  0.360813E-01
     1         35     1     3  0.117881E+01  0.117881E+01  0.541220E-01
     1         36     1     5  0.125999E+01  0.125999E+01  0.811830E-01
     1         37     1U    5  0.125999E+01  0.125999E+01  0.811830E-01
     1         37     2     4  0.128029E+01  0.128029E+01  0.202958E-01
     1         38     1     4  0.130058E+01  0.130058E+01  0.202958E-01
     1         39     1     4  0.133103E+01  0.133103E+01  0.304436E-01
     1         40     1     4  0.137669E+01  0.137669E+01  0.456655E-01
     1         41     1     4  0.144519E+01  0.144519E+01  0.684982E-01
     1         42     1     4  0.154794E+01  0.154794E+01  0.102747E+00
     1         43     1     6  0.170206E+01  0.170206E+01  0.154121E+00
     1         44     1     5  0.185618E+01  0.185618E+01  0.154121E+00
     1         45     1     5  0.201030E+01  0.201030E+01  0.154121E+00
     1         46     1     5  0.216442E+01  0.216442E+01  0.154121E+00
     1         47     1     5  0.231854E+01  0.231854E+01  0.154121E+00
     1         48     1     5  0.247266E+01  0.247266E+01  0.154121E+00
     1         49     1     5  0.262679E+01  0.262679E+01  0.154121E+00
     1         50     1U    5  0.262679E+01  0.262679E+01  0.154121E+00
     1         50     2     4  0.266532E+01  0.266532E+01  0.385302E-01
     1         51     1     4  0.270385E+01  0.270385E+01  0.385302E-01
     1         52     1     4  0.276164E+01  0.276164E+01  0.577953E-01
     1         53     1     5  0.284833E+01  0.284833E+01  0.866930E-01
     1         54     1     6  0.293503E+01  0.293503E+01  0.866930E-01
     1         55     1     4  0.302172E+01  0.302172E+01  0.866930E-01
     1         56     1     4  0.310841E+01  0.310841E+01  0.866930E-01
     1         57     1     3  0.323845E+01  0.323845E+01  0.130040E+00
     1         58     1     4  0.343351E+01  0.343351E+01  0.195059E+00
     1         59     1U    5  0.343351E+01  0.343351E+01  0.292589E+00
     1         59     2     3  0.350666E+01  0.350666E+01  0.731472E-01
     1         60     1     3  0.357981E+01  0.357981E+01  0.731472E-01
     1         61     1     4  0.368953E+01  0.368953E+01  0.109721E+00
     1         62     1     5  0.385411E+01  0.385411E+01  0.164581E+00
     1         63     1     5  0.401869E+01  0.401869E+01  0.164581E+00
     1         64     1U    4  0.401869E+01  0.401869E+01  0.164581E+00
     1         64     2     4  0.405984E+01  0.405984E+01  0.411453E-01
     1         65     1     4  0.410098E+01  0.410098E+01  0.411453E-01
     1         66     1U    6  0.410098E+01  0.410098E+01  0.617180E-01
     1         66     2     4  0.411641E+01  0.411641E+01  0.154295E-01
     1         67     1     4  0.413184E+01  0.413184E+01  0.154295E-01
     1         68     1     3  0.415498E+01  0.415498E+01  0.231442E-01
     1         69     1     4  0.418970E+01  0.418970E+01  0.347164E-01
     1         70     1     4  0.424177E+01  0.424177E+01  0.520745E-01
     1         71     1     4  0.431989E+01  0.431989E+01  0.781118E-01
     1         72     1U    5  0.431989E+01  0.431989E+01  0.117168E+00
     1         72     2     4  0.434918E+01  0.434918E+01  0.292919E-01
     1         73     1     4  0.437847E+01  0.437847E+01  0.292919E-01
     1         74     1     4  0.442241E+01  0.442241E+01  0.439379E-01
     1         75     1     6  0.448832E+01  0.448832E+01  0.659068E-01
     1         76     1     4  0.455422E+01  0.455422E+01  0.659068E-01
     1         77     1     4  0.462013E+01  0.462013E+01  0.659068E-01
     1         78     1U    5  0.462013E+01  0.462013E+01  0.988603E-01
     1         78     2     4  0.464484E+01  0.464484E+01  0.247151E-01
     1         79     1     3  0.466956E+01  0.466956E+01  0.247151E-01
     1         80     1     3  0.470663E+01  0.470663E+01  0.370726E-01
     1         81     1     3  0.476224E+01  0.476224E+01  0.556089E-01
     1         82     1     3  0.484565E+01  0.484565E+01  0.834133E-01
     1         83     1     4  0.497077E+01  0.497077E+01  0.125120E+00
     1         84     1     3  0.515845E+01  0.515845E+01  0.187680E+00
     1         85     1U    4  0.515845E+01  0.515845E+01  0.281520E+00
     1         85     2     3  0.522883E+01  0.522883E+01  0.703800E-01
     1         86     1     4  0.529921E+01  0.529921E+01  0.703800E-01
     1         87     1     3  0.540478E+01  0.540478E+01  0.105570E+00
     1         88     1     5  0.556314E+01  0.556314E+01  0.158355E+00
     1         89     1U    5  0.556314E+01  0.556314E+01  0.158355E+00
     1         89     2     5  0.560273E+01  0.560273E+01  0.395888E-01
     1         90     1     4  0.564232E+01  0.564232E+01  0.395888E-01
     1         91     1     4  0.568191E+01  0.568191E+01  0.395888E-01
     1         92     1     4  0.574129E+01  0.574129E+01  0.593831E-01
     1         93     1U    4  0.574129E+01  0.574129E+01  0.890747E-01
     1         93     2     4  0.576356E+01  0.576356E+01  0.222687E-01
     1         94     1     4  0.578583E+01  0.578583E+01  0.222687E-01
     1         95     1     4  0.581923E+01  0.581923E+01  0.334030E-01
     1         96     1     4  0.586933E+01  0.586933E+01  0.501045E-01
     1         97     1     4  0.594449E+01  0.594449E+01  0.751568E-01
     1         98     1     5  0.605723E+01  0.605723E+01  0.112735E+00
     1         99     1     5  0.616996E+01  0.616996E+01  0.112735E+00
     1        100     1     5  0.628270E+01  0.628270E+01  0.112735E+00
     1        101     1     4  0.639543E+01  0.639543E+01  0.112735E+00
     1        102     1     3  0.650817E+01  0.650817E+01  0.112735E+00
     1        103     1     3  0.667727E+01  0.667727E+01  0.169103E+00
     1        104     1     3  0.693092E+01  0.693092E+01  0.253654E+00
     1        105     1     5  0.731140E+01  0.731140E+01  0.380481E+00
     1        106     1     5  0.769188E+01  0.769188E+01  0.380481E+00
     1        107     1     5  0.807237E+01  0.807237E+01  0.380481E+00
     1        108     1     6  0.845285E+01  0.845285E+01  0.380481E+00
     1        109     1     5  0.883333E+01  0.883333E+01  0.380481E+00
     1        110     1     5  0.921381E+01  0.921381E+01  0.380481E+00
     1        111     1U    6  0.921381E+01  0.921381E+01  0.380481E+00
     1        111     2     4  0.930893E+01  0.930893E+01  0.951203E-01
     1        112     1     4  0.940405E+01  0.940405E+01  0.951203E-01
     1        113     1     5  0.954673E+01  0.954673E+01  0.142680E+00
     1        114     1U    5  0.954673E+01  0.954673E+01  0.142680E+00
     1        114     2     4  0.958240E+01  0.958240E+01  0.356701E-01
     1        115     1     3  0.961807E+01  0.961807E+01  0.356701E-01
     1        116     1     4  0.967158E+01  0.967158E+01  0.535052E-01
     1        117     1     3  0.975183E+01  0.975183E+01  0.802577E-01
     1        118     1     3  0.987222E+01  0.987222E+01  0.120387E+00
     1        119     1     6  0.100528E+02  0.100528E+02  0.180580E+00
     1        120     1     3  0.102334E+02  0.102334E+02  0.180580E+00
     1        121     1U    4  0.102334E+02  0.102334E+02  0.180580E+00
     1        121     2     3  0.102785E+02  0.102785E+02  0.451450E-01
     1        122     1     3  0.103237E+02  0.103237E+02  0.451450E-01
     1        123     1     5  0.103914E+02  0.103914E+02  0.677175E-01
     1        124     1     4  0.104591E+02  0.104591E+02  0.677175E-01
     1        125     1     3  0.105268E+02  0.105268E+02  0.677175E-01
     1        126     1U    4  0.105268E+02  0.105268E+02  0.101576E+00
     1        126     2     3  0.105522E+02  0.105522E+02  0.253941E-01
     1        127     1     3  0.105776E+02  0.105776E+02  0.253941E-01
     1        128     1     3  0.106157E+02  0.106157E+02  0.380911E-01
     1        129     1     3  0.106728E+02  0.106728E+02  0.571366E-01
     1        130     1     6  0.107585E+02  0.107585E+02  0.857049E-01
     1        131     1     4  0.108442E+02  0.108442E+02  0.857049E-01
     1        132     1U    6  0.108442E+02  0.108442E+02  0.857049E-01
     1        132     2     3  0.108657E+02  0.108657E+02  0.214262E-01
     1        133     1     3  0.108871E+02  0.108871E+02  0.214262E-01
     1        134     1     4  0.109192E+02  0.109192E+02  0.321393E-01
     1        135     1U    5  0.109192E+02  0.109192E+02  0.482090E-01
     1        135     2     3  0.109313E+02  0.109313E+02  0.120523E-01
     1        136     1     3  0.109433E+02  0.109433E+02  0.120523E-01
     1        137     1     4  0.109614E+02  0.109614E+02  0.180784E-01
     1        138     1     4  0.109885E+02  0.109885E+02  0.271176E-01
     1        139     1     4  0.110292E+02  0.110292E+02  0.406764E-01
     1        140     1     4  0.110902E+02  0.110902E+02  0.610145E-01
     1        141     1U    4  0.110902E+02  0.110902E+02  0.915218E-01
     1        141     2     3  0.111131E+02  0.111131E+02  0.228805E-01
     1        142     1     4  0.111360E+02  0.111360E+02  0.228805E-01
     1        143     1     3  0.111703E+02  0.111703E+02  0.343207E-01
     1        144     1     3  0.112218E+02  0.112218E+02  0.514810E-01
     1        145     1     5  0.112990E+02  0.112990E+02  0.772215E-01
     1        146     1     4  0.113762E+02  0.113762E+02  0.772215E-01
     1        147     1U    4  0.113762E+02  0.113762E+02  0.772215E-01
     1        147     2     3  0.113955E+02  0.113955E+02  0.193054E-01
     1        148     1     3  0.114148E+02  0.114148E+02  0.193054E-01
     1        149     1     3  0.114438E+02  0.114438E+02  0.289581E-01
     1        150     1     3  0.114872E+02  0.114872E+02  0.434371E-01
     1        151     1     4  0.115524E+02  0.115524E+02  0.651557E-01
     1        152     1     3  0.116501E+02  0.116501E+02  0.977335E-01
     1        153     1     3  0.117967E+02  0.117967E+02  0.146600E+00
     1        154     1U    5  0.117967E+02  0.117967E+02  0.219900E+00
     1        154     2     4  0.118517E+02  0.118517E+02  0.549751E-01
     1        155     1     3  0.119067E+02  0.119067E+02  0.549751E-01
     1        156     1     6  0.119891E+02  0.119891E+02  0.824626E-01
     1        157     1     3  0.120716E+02  0.120716E+02  0.824626E-01
     1        158     1     3  0.121541E+02  0.121541E+02  0.824626E-01
     1        159     1     3  0.122778E+02  0.122778E+02  0.123694E+00
     1        160     1     5  0.124633E+02  0.124633E+02  0.185541E+00
     1        161     1     5  0.126488E+02  0.126488E+02  0.185541E+00
     1        162     1     5  0.128344E+02  0.128344E+02  0.185541E+00
     1        163     1     5  0.130199E+02  0.130199E+02  0.185541E+00
     1        164     1     5  0.132055E+02  0.132055E+02  0.185541E+00
     1        165     1     3  0.133910E+02  0.133910E+02  0.185541E+00
     1        166     1     8  0.135766E+02  0.135766E+02  0.185541E+00
     1        167     1U    5  0.135766E+02  0.135766E+02  0.185541E+00
     1        167     2     3  0.136229E+02  0.136229E+02  0.463852E-01
     1        168     1     3  0.136693E+02  0.136693E+02  0.463852E-01
     1        169     1     3  0.137389E+02  0.137389E+02  0.695779E-01
     1        170     1     3  0.138433E+02  0.138433E+02  0.104367E+00
     1        171     1     3  0.139998E+02  0.139998E+02  0.156550E+00
     1        172     1     5  0.142346E+02  0.142346E+02  0.234825E+00
     1        173     1     5  0.144695E+02  0.144695E+02  0.234825E+00
     1        174     1U    5  0.144695E+02  0.144695E+02  0.234825E+00
     1        174     2     4  0.145282E+02  0.145282E+02  0.587063E-01
     1        175     1U    5  0.145282E+02  0.145282E+02  0.587063E-01
     1        175     2     3  0.145428E+02  0.145428E+02  0.146766E-01
     1        176     1     3  0.145575E+02  0.145575E+02  0.146766E-01
     1        177     1     3  0.145795E+02  0.145795E+02  0.220149E-01
     1        178     1     3  0.146126E+02  0.146126E+02  0.330223E-01
     1        179     1     3  0.146621E+02  0.146621E+02  0.495335E-01
     1        180     1     3  0.147364E+02  0.147364E+02  0.743002E-01
     1        181     1     4  0.148478E+02  0.148478E+02  0.111450E+00
     1        182     1U    4  0.148478E+02  0.148478E+02  0.167175E+00
     1        182     2     3  0.148896E+02  0.148896E+02  0.417939E-01
     1        183     1     3  0.149314E+02  0.149314E+02  0.417939E-01
     1        184     1     3  0.149941E+02  0.149941E+02  0.626908E-01
     1        185     1     3  0.150882E+02  0.150882E+02  0.940362E-01
     1        186     1     4  0.152292E+02  0.152292E+02  0.141054E+00
     1        187     1     3  0.154408E+02  0.154408E+02  0.211581E+00
     1        188     1U    5  0.154408E+02  0.154408E+02  0.317372E+00
     1        188     2     3  0.155201E+02  0.155201E+02  0.793430E-01
     1        189     1     3  0.155995E+02  0.155995E+02  0.793430E-01
     1        190     1     3  0.157185E+02  0.157185E+02  0.119015E+00
     1        191     1     5  0.158970E+02  0.158970E+02  0.178522E+00
     1        192     1     5  0.160755E+02  0.160755E+02  0.178522E+00
     1        193     1     5  0.162541E+02  0.162541E+02  0.178522E+00
     1        194     1     5  0.164326E+02  0.164326E+02  0.178522E+00
     1        195     1     3  0.166111E+02  0.166111E+02  0.178522E+00
     1        196     1     3  0.167896E+02  0.167896E+02  0.178522E+00
     1        197     1U    5  0.167896E+02  0.167896E+02  0.267783E+00
     1        197     2     4  0.168566E+02  0.168566E+02  0.669457E-01
     1        198     1     3  0.169235E+02  0.169235E+02  0.669457E-01
     1        199     1U    5  0.169235E+02  0.169235E+02  0.100418E+00
     1        199     2     3  0.169486E+02  0.169486E+02  0.251046E-01
     1        200     1     3  0.169737E+02  0.169737E+02  0.251046E-01
     1        201     1     4  0.170114E+02  0.170114E+02  0.376569E-01
     1        202     1     3  0.170679E+02  0.170679E+02  0.564854E-01
     1        203     1U    4  0.170679E+02  0.170679E+02  0.847281E-01
     1        203     2     3  0.170891E+02  0.170891E+02  0.211820E-01
     1        204     1     3  0.171102E+02  0.171102E+02  0.211820E-01
     1        205     1     3  0.171420E+02  0.171420E+02  0.317730E-01
     1        206     1     3  0.171897E+02  0.171897E+02  0.476596E-01
     1        207     1     3  0.172612E+02  0.172612E+02  0.714893E-01
     1        208     1     3  0.173684E+02  0.173684E+02  0.107234E+00
     1        209     1     5  0.175292E+02  0.175292E+02  0.160851E+00
     1        210     1     5  0.176901E+02  0.176901E+02  0.160851E+00
     1        211     1     4  0.178509E+02  0.178509E+02  0.160851E+00
     1        212     1     4  0.180118E+02  0.180118E+02  0.160851E+00
     1        213     1     5  0.182531E+02  0.182531E+02  0.241277E+00
     1        214     1U    4  0.182531E+02  0.182531E+02  0.241277E+00
     1        214     2     4  0.183134E+02  0.183134E+02  0.603191E-01
     1        215     1     3  0.183737E+02  0.183737E+02  0.603191E-01
     1        216     1U    5  0.183737E+02  0.183737E+02  0.904787E-01
     1        216     2     4  0.183963E+02  0.183963E+02  0.226197E-01
     1        217     1     5  0.184190E+02  0.184190E+02  0.226197E-01
     1        218     1     4  0.184416E+02  0.184416E+02  0.226197E-01
     1        219     1     3  0.184642E+02  0.184642E+02  0.226197E-01
     1        220     1     4  0.184981E+02  0.184981E+02  0.339295E-01
     1        221     1U    5  0.184981E+02  0.184981E+02  0.508943E-01
     1        221     2     3  0.185108E+02  0.185108E+02  0.127236E-01
     1        222     1     4  0.185236E+02  0.185236E+02  0.127236E-01
     1        223     1     3  0.185427E+02  0.185427E+02  0.190854E-01
     1        224     1U    4  0.185427E+02  0.185427E+02  0.286280E-01
     1        224     2     3  0.185498E+02  0.185498E+02  0.715701E-02
     1        225     1     3  0.185570E+02  0.185570E+02  0.715701E-02
     1        226     1     3  0.185677E+02  0.185677E+02  0.107355E-01
     1        227     1     3  0.185838E+02  0.185838E+02  0.161033E-01
     1        228     1     3  0.186080E+02  0.186080E+02  0.241549E-01
     1        229     1     4  0.186442E+02  0.186442E+02  0.362323E-01
     1        230     1     3  0.186985E+02  0.186985E+02  0.543485E-01
     1        231     1U    4  0.186985E+02  0.186985E+02  0.815228E-01
     1        231     2     3  0.187189E+02  0.187189E+02  0.203807E-01
     1        232     1     3  0.187393E+02  0.187393E+02  0.203807E-01
     1        233     1     4  0.187699E+02  0.187699E+02  0.305710E-01
     1        234     1     3  0.188157E+02  0.188157E+02  0.458566E-01
     1        235     1     3  0.188845E+02  0.188845E+02  0.687848E-01
     1        236     1     3  0.189877E+02  0.189877E+02  0.103177E+00
     1        237     1     5  0.191425E+02  0.191425E+02  0.154766E+00
     1        238     1U    5  0.191425E+02  0.191425E+02  0.154766E+00
     1        238     2     3  0.191811E+02  0.191811E+02  0.386915E-01
     1        239     1     3  0.192198E+02  0.192198E+02  0.386915E-01
     1        240     1     4  0.192779E+02  0.192779E+02  0.580372E-01
     1        241     1     4  0.193649E+02  0.193649E+02  0.870558E-01
     1        242     1U    4  0.193649E+02  0.193649E+02  0.130584E+00
     1        242     2     4  0.193976E+02  0.193976E+02  0.326459E-01
     1        243     1     3  0.194302E+02  0.194302E+02  0.326459E-01
     1        244     1     3  0.194792E+02  0.194792E+02  0.489689E-01
     1        245     1     6  0.195526E+02  0.195526E+02  0.734533E-01
     1        246     1     3  0.196261E+02  0.196261E+02  0.734533E-01
     1        247     1     3  0.196996E+02  0.196996E+02  0.734533E-01
     1        248     1U    5  0.196996E+02  0.196996E+02  0.110180E+00
     1        248     2     3  0.197271E+02  0.197271E+02  0.275450E-01
     1        249     1     3  0.197546E+02  0.197546E+02  0.275450E-01
     1        250     1     3  0.197960E+02  0.197960E+02  0.413175E-01
     1        251     1U    5  0.197960E+02  0.197960E+02  0.619763E-01
     1        251     2     4  0.198115E+02  0.198115E+02  0.154941E-01
     1        252     1     3  0.198269E+02  0.198269E+02  0.154941E-01
     1        253     1     3  0.198502E+02  0.198502E+02  0.232411E-01
     1        254     1     3  0.198851E+02  0.198851E+02  0.348616E-01
     1        255     1     3  0.199373E+02  0.199373E+02  0.522925E-01
     1        256     1     3  0.200158E+02  0.200158E+02  0.784387E-01
     1        257     1     3  0.201334E+02  0.201334E+02  0.117658E+00
     1        258     1     3  0.203099E+02  0.203099E+02  0.176487E+00
     1        259     1     5  0.205747E+02  0.205747E+02  0.264731E+00
     1        260     1     5  0.208394E+02  0.208394E+02  0.264731E+00
     1        261     1     5  0.211041E+02  0.211041E+02  0.264731E+00
     1        262     1     5  0.213689E+02  0.213689E+02  0.264731E+00
     1        263     1     5  0.216336E+02  0.216336E+02  0.264731E+00
     1        264     1     5  0.218983E+02  0.218983E+02  0.264731E+00
     1        265     1U    5  0.218983E+02  0.218983E+02  0.264731E+00
     1        265     2     3  0.219645E+02  0.219645E+02  0.661827E-01
     1        266     1     3  0.220307E+02  0.220307E+02  0.661827E-01
     1        267     1     3  0.221300E+02  0.221300E+02  0.992740E-01
     1        268     1U    4  0.221300E+02  0.221300E+02  0.148911E+00
     1        268     2     3  0.221672E+02  0.221672E+02  0.372277E-01
     1        269     1     3  0.222044E+02  0.222044E+02  0.372277E-01
     1        270     1     3  0.222602E+02  0.222602E+02  0.558416E-01
     1        271     1     3  0.223440E+02  0.223440E+02  0.837624E-01
     1        272     1U    4  0.223440E+02  0.223440E+02  0.125644E+00
     1        272     2     3  0.223754E+02  0.223754E+02  0.314109E-01
     1        273     1     3  0.224068E+02  0.224068E+02  0.314109E-01
     1        274     1     3  0.224539E+02  0.224539E+02  0.471164E-01
     1        275     1     4  0.225246E+02  0.225246E+02  0.706745E-01
     1        276     1     4  0.226306E+02  0.226306E+02  0.106012E+00
     1        277     1     3  0.227897E+02  0.227897E+02  0.159018E+00
     1        278     1     5  0.230282E+02  0.230282E+02  0.238527E+00
     1        279     1     5  0.232667E+02  0.232667E+02  0.238527E+00
     1        280     1     5  0.235052E+02  0.235052E+02  0.238527E+00
     1        281     1U    4  0.235052E+02  0.235052E+02  0.238527E+00
     1        281     2     3  0.235649E+02  0.235649E+02  0.596316E-01
     1        282     1     3  0.236245E+02  0.236245E+02  0.596316E-01
     1        283     1U    5  0.236245E+02  0.236245E+02  0.894475E-01
     1        283     2     3  0.236469E+02  0.236469E+02  0.223619E-01
     1        284     1     3  0.236692E+02  0.236692E+02  0.223619E-01
     1        285     1     3  0.237028E+02  0.237028E+02  0.335428E-01
     1        286     1     3  0.237531E+02  0.237531E+02  0.503142E-01
     1        287     1     4  0.238285E+02  0.238285E+02  0.754713E-01
     1        288     1U    4  0.238285E+02  0.238285E+02  0.113207E+00
     1        288     2     3  0.238569E+02  0.238569E+02  0.283017E-01
     1        289     1     3  0.238852E+02  0.238852E+02  0.283017E-01
     1        290     1     3  0.239276E+02  0.239276E+02  0.424526E-01
     1        291     1U    4  0.239276E+02  0.239276E+02  0.636789E-01
     1        291     2     3  0.239435E+02  0.239435E+02  0.159197E-01
     1        292     1     3  0.239594E+02  0.239594E+02  0.159197E-01
     1        293     1     3  0.239833E+02  0.239833E+02  0.238796E-01
     1        294     1     3  0.240191E+02  0.240191E+02  0.358194E-01
     1        295     1     3  0.240729E+02  0.240729E+02  0.537291E-01
     1        296     1     3  0.241535E+02  0.241535E+02  0.805936E-01
     1        297     1     4  0.242744E+02  0.242744E+02  0.120890E+00
     1        298     1     3  0.244557E+02  0.244557E+02  0.181336E+00
     1        299     1     5  0.247277E+02  0.247277E+02  0.272003E+00
     1        300     1U    4  0.247277E+02  0.247277E+02  0.272003E+00
     1        300     2     3  0.247957E+02  0.247957E+02  0.680009E-01
     1        301     1     3  0.248637E+02  0.248637E+02  0.680009E-01
     1        302     1     3  0.249657E+02  0.249657E+02  0.102001E+00
     1        303     1U    4  0.249657E+02  0.249657E+02  0.153002E+00
     1        303     2U    4  0.249657E+02  0.249657E+02  0.382505E-01
     1        303     3     3  0.249753E+02  0.249753E+02  0.956262E-02
     1        304     1     3  0.249848E+02  0.249848E+02  0.956262E-02
     1        305     1     3  0.249992E+02  0.249992E+02  0.143439E-01
     1        306     1     3  0.250207E+02  0.250207E+02  0.215159E-01
     1        307     1     3  0.250530E+02  0.250530E+02  0.322739E-01
     1        308     1     3  0.251014E+02  0.251014E+02  0.484108E-01
     1        309     1     3  0.251740E+02  0.251740E+02  0.726162E-01
     1        310     1     3  0.252829E+02  0.252829E+02  0.108924E+00
     1        311     1     3  0.254463E+02  0.254463E+02  0.163386E+00
     1        312     1U    5  0.254463E+02  0.254463E+02  0.245080E+00
     1        312     2     3  0.255076E+02  0.255076E+02  0.612699E-01
     1        313     1     3  0.255688E+02  0.255688E+02  0.612699E-01
     1        314     1U    6  0.255688E+02  0.255688E+02  0.919048E-01
     1        314     2     3  0.255918E+02  0.255918E+02  0.229762E-01
     1        315     1     3  0.256148E+02  0.256148E+02  0.229762E-01
     1        316     1     3  0.256493E+02  0.256493E+02  0.344643E-01
     1        317     1     3  0.257009E+02  0.257009E+02  0.516965E-01
     1        318     1     3  0.257785E+02  0.257785E+02  0.775447E-01
     1        319     1     3  0.258948E+02  0.258948E+02  0.116317E+00
     1        320     1U    5  0.258948E+02  0.258948E+02  0.174476E+00
     1        320     2     3  0.259384E+02  0.259384E+02  0.436189E-01
     1        321     1     3  0.259820E+02  0.259820E+02  0.436189E-01
     1        322     1     3  0.260475E+02  0.260475E+02  0.654283E-01
     1        323     1U    5  0.260475E+02  0.260475E+02  0.981425E-01
     1        323     2     3  0.260720E+02  0.260720E+02  0.245356E-01
     1        324     1     6  0.260965E+02  0.260965E+02  0.245356E-01
     1        325     1     3  0.261211E+02  0.261211E+02  0.245356E-01
     1        326     1     3  0.261456E+02  0.261456E+02  0.245356E-01
     1        327     1     5  0.261824E+02  0.261824E+02  0.368034E-01
     1        328     1     3  0.262192E+02  0.262192E+02  0.368034E-01
     1        329     1U    4  0.262192E+02  0.262192E+02  0.368034E-01
     1        329     2     3  0.262284E+02  0.262284E+02  0.920086E-02
     1        330     1     3  0.262376E+02  0.262376E+02  0.920086E-02
     1        331     1     3  0.262514E+02  0.262514E+02  0.138013E-01
     1        332     1     3  0.262721E+02  0.262721E+02  0.207019E-01
     1        333     1     3  0.263032E+02  0.263032E+02  0.310529E-01
     1        334     1U    4  0.263032E+02  0.263032E+02  0.465794E-01
     1        334     2     3  0.263148E+02  0.263148E+02  0.116448E-01
     1        335     1     3  0.263265E+02  0.263265E+02  0.116448E-01
     1        336     1     3  0.263439E+02  0.263439E+02  0.174673E-01
     1        337     1     3  0.263701E+02  0.263701E+02  0.262009E-01
     1        338     1     3  0.264094E+02  0.264094E+02  0.393013E-01
     1        339     1     4  0.264684E+02  0.264684E+02  0.589520E-01
     1        340     1     3  0.265568E+02  0.265568E+02  0.884280E-01
     1        341     1     3  0.266895E+02  0.266895E+02  0.132642E+00
     1        342     1     6  0.268884E+02  0.268884E+02  0.198963E+00
     1        343     1     3  0.270874E+02  0.270874E+02  0.198963E+00
     1        344     1     3  0.272864E+02  0.272864E+02  0.198963E+00
     1        345     1     4  0.275848E+02  0.275848E+02  0.298444E+00
     1        346     1     5  0.280325E+02  0.280325E+02  0.447667E+00
     1        347     1     5  0.284801E+02  0.284801E+02  0.447667E+00
     1        348     1     5  0.289278E+02  0.289278E+02  0.447667E+00
     1        349     1     4  0.293755E+02  0.293755E+02  0.447667E+00
     1        350     1     5  0.298231E+02  0.298231E+02  0.447667E+00
     1        351     1     5  0.302708E+02  0.302708E+02  0.447667E+00
     1        352     1U    5  0.302708E+02  0.302708E+02  0.447667E+00
     1        352     2     3  0.303827E+02  0.303827E+02  0.111917E+00
     1        353     1     3  0.304946E+02  0.304946E+02  0.111917E+00
     1        354     1     3  0.306625E+02  0.306625E+02  0.167875E+00
     1        355     1     4  0.309143E+02  0.309143E+02  0.251813E+00
     1        356     1     5  0.312920E+02  0.312920E+02  0.377719E+00
     1        357     1     5  0.316698E+02  0.316698E+02  0.377719E+00
     1        358     1     5  0.320475E+02  0.320475E+02  0.377719E+00
     1        359     1     4  0.324252E+02  0.324252E+02  0.377719E+00
     1        360     1     3  0.328029E+02  0.328029E+02  0.377719E+00
     1        361     1     5  0.333695E+02  0.333695E+02  0.566578E+00
     1        362     1U    5  0.333695E+02  0.333695E+02  0.566578E+00
     1        362     2     3  0.335111E+02  0.335111E+02  0.141645E+00
     1        363     1     3  0.336528E+02  0.336528E+02  0.141645E+00
     1        364     1     3  0.338652E+02  0.338652E+02  0.212467E+00
     1        365     1     3  0.341839E+02  0.341839E+02  0.318700E+00
     1        366     1     5  0.346620E+02  0.346620E+02  0.478050E+00
     1        367     1     5  0.351400E+02  0.351400E+02  0.478050E+00
     1        368     1     5  0.356181E+02  0.356181E+02  0.478050E+00
     1        369     1U    9  0.356181E+02  0.356181E+02  0.478050E+00
     1        369     2     4  0.357376E+02  0.357376E+02  0.119513E+00
     1        370     1     3  0.358571E+02  0.358571E+02  0.119513E+00
     1        371     1     4  0.360364E+02  0.360364E+02  0.179269E+00
     1        372     1     3  0.363053E+02  0.363053E+02  0.268903E+00
     1        373     1U    4  0.363053E+02  0.363053E+02  0.403355E+00
     1        373     2     4  0.364061E+02  0.364061E+02  0.100839E+00
     1        374     1     3  0.365070E+02  0.365070E+02  0.100839E+00
     1        375     1     3  0.366582E+02  0.366582E+02  0.151258E+00
     1        376     1     3  0.368851E+02  0.368851E+02  0.226887E+00
     1        377     1U    4  0.368851E+02  0.368851E+02  0.340331E+00
     1        377     2     3  0.369702E+02  0.369702E+02  0.850827E-01
     1        378     1     3  0.370553E+02  0.370553E+02  0.850827E-01
     1        379     1     3  0.371829E+02  0.371829E+02  0.127624E+00
     1        380     1     4  0.373743E+02  0.373743E+02  0.191436E+00
     1        381     1     5  0.376615E+02  0.376615E+02  0.287154E+00
     1        382     1U    4  0.376615E+02  0.376615E+02  0.287154E+00
     1        382     2     3  0.377333E+02  0.377333E+02  0.717885E-01
     1        383     1     3  0.378051E+02  0.378051E+02  0.717885E-01
     1        384     1     4  0.379128E+02  0.379128E+02  0.107683E+00
     1        385     1     3  0.380743E+02  0.380743E+02  0.161524E+00
     1        386     1     5  0.383166E+02  0.383166E+02  0.242286E+00
     1        387     1     3  0.385589E+02  0.385589E+02  0.242286E+00
     1        388     1     3  0.388011E+02  0.388011E+02  0.242286E+00
     1        389     1     5  0.391646E+02  0.391646E+02  0.363429E+00
     1        390     1     3  0.395280E+02  0.395280E+02  0.363429E+00
     1        391     1U    5  0.395280E+02  0.395280E+02  0.363429E+00
     1        391     2     3  0.396189E+02  0.396189E+02  0.908574E-01
     1        392     1     3  0.397097E+02  0.397097E+02  0.908574E-01
     1        393     1     3  0.398460E+02  0.398460E+02  0.136286E+00
     1        394     1U    4  0.398460E+02  0.398460E+02  0.204429E+00
     1        394     2     4  0.398971E+02  0.398971E+02  0.511073E-01
     1        395     1U    5  0.398971E+02  0.398971E+02  0.511073E-01
     1        395     2     3  0.399099E+02  0.399099E+02  0.127768E-01
     1        396     1     3  0.399227E+02  0.399227E+02  0.127768E-01
     1        397     1     3  0.399418E+02  0.399418E+02  0.191652E-01
     1        398     1U    4  0.399418E+02  0.399418E+02  0.287478E-01
     1        398     2     3  0.399490E+02  0.399490E+02  0.718696E-02
     1        399     1     3  0.399562E+02  0.399562E+02  0.718696E-02
     1        400     1     3  0.399670E+02  0.399670E+02  0.107804E-01
     1        401     1     3  0.399832E+02  0.399832E+02  0.161707E-01
     1        402     1     3  0.400074E+02  0.400074E+02  0.242560E-01
     1        403     1U    4  0.400074E+02  0.400074E+02  0.363840E-01
     1        403     2     3  0.400165E+02  0.400165E+02  0.909599E-02
     1        404     1     3  0.400256E+02  0.400256E+02  0.909599E-02
     1        405     1     3  0.400392E+02  0.400392E+02  0.136440E-01
     1        406     1     3  0.400597E+02  0.400597E+02  0.204660E-01
     1        407     1     3  0.400904E+02  0.400904E+02  0.306990E-01
     1        408     1     3  0.401365E+02  0.401365E+02  0.460485E-01
     1        409     1     3  0.402055E+02  0.402055E+02  0.690727E-01
     1        410     1     3  0.403091E+02  0.403091E+02  0.103609E+00
     1        411     1     3  0.404646E+02  0.404646E+02  0.155414E+00
     1        412     1     3  0.406977E+02  0.406977E+02  0.233120E+00
     1        413     1     5  0.410474E+02  0.410474E+02  0.349681E+00
     1        414     1     5  0.413970E+02  0.413970E+02  0.349681E+00
     1        415     1     5  0.417467E+02  0.417467E+02  0.349681E+00
     1        416     1     3  0.420964E+02  0.420964E+02  0.349681E+00
     1        417     1     5  0.424461E+02  0.424461E+02  0.349681E+00
     1        418     1     5  0.427958E+02  0.427958E+02  0.349681E+00
     1        419     1     5  0.431454E+02  0.431454E+02  0.349681E+00
     1        420     1     5  0.434951E+02  0.434951E+02  0.349681E+00
     1        421     1U    4  0.434951E+02  0.434951E+02  0.349681E+00
     1        421     2     3  0.435825E+02  0.435825E+02  0.874201E-01
     1        422     1     3  0.436700E+02  0.436700E+02  0.874201E-01
     1        423     1     3  0.438011E+02  0.438011E+02  0.131130E+00
     1        424     1     4  0.439978E+02  0.439978E+02  0.196695E+00
     1        425     1     5  0.442928E+02  0.442928E+02  0.295043E+00
     1        426     1U    4  0.442928E+02  0.442928E+02  0.295043E+00
     1        426     2     4  0.443666E+02  0.443666E+02  0.737607E-01
     1        427     1     3  0.444403E+02  0.444403E+02  0.737607E-01
     1        428     1     3  0.445510E+02  0.445510E+02  0.110641E+00
     1        429     1     3  0.447170E+02  0.447170E+02  0.165962E+00
     1        430     1U    5  0.447170E+02  0.447170E+02  0.248943E+00
     1        430     2     3  0.447792E+02  0.447792E+02  0.622356E-01
     1        431     1     4  0.448414E+02  0.448414E+02  0.622356E-01
     1        432     1     3  0.449348E+02  0.449348E+02  0.933534E-01
     1        433     1     3  0.450748E+02  0.450748E+02  0.140030E+00
     1        434     1U    4  0.450748E+02  0.450748E+02  0.210045E+00
     1        434     2     3  0.451273E+02  0.451273E+02  0.525113E-01
     1        435     1     6  0.451798E+02  0.451798E+02  0.525113E-01
     1        436     1     3  0.452323E+02  0.452323E+02  0.525113E-01
     1        437     1U    4  0.452323E+02  0.452323E+02  0.525113E-01
     1        437     2     3  0.452455E+02  0.452455E+02  0.131278E-01
     1        438     1     4  0.452586E+02  0.452586E+02  0.131278E-01
     1        439     1     4  0.452783E+02  0.452783E+02  0.196917E-01
     1        440     1     3  0.453078E+02  0.453078E+02  0.295376E-01
     1        441     1     3  0.453521E+02  0.453521E+02  0.443064E-01
     1        442     1     3  0.454186E+02  0.454186E+02  0.664596E-01
     1        443     1U    5  0.454186E+02  0.454186E+02  0.996894E-01
     1        443     2     3  0.454435E+02  0.454435E+02  0.249224E-01
     1        444     1     3  0.454684E+02  0.454684E+02  0.249224E-01
     1        445     1     3  0.455058E+02  0.455058E+02  0.373835E-01
     1        446     1     3  0.455619E+02  0.455619E+02  0.560753E-01
     1        447     1     4  0.456460E+02  0.456460E+02  0.841130E-01
     1        448     1     4  0.457722E+02  0.457722E+02  0.126169E+00
     1        449     1U    4  0.457722E+02  0.457722E+02  0.189254E+00
     1        449     2U    5  0.457722E+02  0.457722E+02  0.473135E-01
     1        449     3     3  0.457840E+02  0.457840E+02  0.118284E-01
     1        450     1     3  0.457958E+02  0.457958E+02  0.118284E-01
     1        451     1     3  0.458136E+02  0.458136E+02  0.177426E-01
     1        452     1     4  0.458402E+02  0.458402E+02  0.266139E-01
     1        453     1     4  0.458801E+02  0.458801E+02  0.399208E-01
     1        454     1     4  0.459400E+02  0.459400E+02  0.598812E-01
     1        455     1     4  0.460298E+02  0.460298E+02  0.898218E-01
     1        456     1     4  0.461645E+02  0.461645E+02  0.134733E+00
     1        457     1     3  0.463666E+02  0.463666E+02  0.202099E+00
     1        458     1     5  0.466698E+02  0.466698E+02  0.303149E+00
     1        459     1     5  0.469729E+02  0.469729E+02  0.303149E+00
     1        460     1     5  0.472761E+02  0.472761E+02  0.303149E+00
     1        461     1     5  0.475792E+02  0.475792E+02  0.303149E+00
     1        462     1     5  0.478824E+02  0.478824E+02  0.303149E+00
     1        463     1     3  0.481855E+02  0.481855E+02  0.303149E+00
     1        464     1     5  0.484887E+02  0.484887E+02  0.303149E+00
     1        465     1     5  0.487918E+02  0.487918E+02  0.303149E+00
     1        466     1     5  0.490950E+02  0.490950E+02  0.303149E+00
     1        467     1     5  0.493981E+02  0.493981E+02  0.303149E+00
     1        468     1U    5  0.493981E+02  0.493981E+02  0.303149E+00
     1        468     2     4  0.494739E+02  0.494739E+02  0.757872E-01
     1        469     1     4  0.495497E+02  0.495497E+02  0.757872E-01
     1        470     1U    5  0.495497E+02  0.495497E+02  0.113681E+00
     1        470     2     3  0.495781E+02  0.495781E+02  0.284202E-01
     1        471     1     3  0.496065E+02  0.496065E+02  0.284202E-01
     1        472     1     3  0.496492E+02  0.496492E+02  0.426303E-01
     1        473     1     3  0.497131E+02  0.497131E+02  0.639454E-01
     1        474     1U    4  0.497131E+02  0.497131E+02  0.959181E-01
     1        474     2     4  0.497371E+02  0.497371E+02  0.239795E-01
     1        475     1     3  0.497611E+02  0.497611E+02  0.239795E-01
     1        476     1     5  0.497971E+02  0.497971E+02  0.359693E-01
     1        477     1     3  0.498330E+02  0.498330E+02  0.359693E-01
     1        478     1     3  0.498690E+02  0.498690E+02  0.359693E-01
     1        479     1     3  0.499229E+02  0.499229E+02  0.539539E-01
     1        480     1     3  0.500039E+02  0.500039E+02  0.809309E-01
     1        481     1     3  0.501253E+02  0.501253E+02  0.121396E+00
     1        482     1     3  0.503074E+02  0.503074E+02  0.182095E+00
     1        483     1     5  0.505805E+02  0.505805E+02  0.273142E+00
     1        484     1U    5  0.505805E+02  0.505805E+02  0.273142E+00
     1        484     2U    6  0.505805E+02  0.505805E+02  0.682855E-01
     1        484     3     3  0.505976E+02  0.505976E+02  0.170714E-01
     1        485     1     3  0.506146E+02  0.506146E+02  0.170714E-01
     1        486     1     3  0.506403E+02  0.506403E+02  0.256070E-01
     1        487     1     4  0.506787E+02  0.506787E+02  0.384106E-01
     1        488     1     4  0.507363E+02  0.507363E+02  0.576159E-01
     1        489     1     4  0.508227E+02  0.508227E+02  0.864238E-01
     1        490     1     4  0.509523E+02  0.509523E+02  0.129636E+00
     1        491     1     4  0.511468E+02  0.511468E+02  0.194454E+00
     1        492     1U    5  0.511468E+02  0.511468E+02  0.291680E+00
     1        492     2     4  0.512197E+02  0.512197E+02  0.729201E-01
     1        493     1     4  0.512926E+02  0.512926E+02  0.729201E-01
     1        494     1     4  0.514020E+02  0.514020E+02  0.109380E+00
     1        495     1     4  0.515661E+02  0.515661E+02  0.164070E+00
     1        496     1U    5  0.515661E+02  0.515661E+02  0.246105E+00
     1        496     2     3  0.516276E+02  0.516276E+02  0.615263E-01
     1        497     1     3  0.516891E+02  0.516891E+02  0.615263E-01
     1        498     1     3  0.517814E+02  0.517814E+02  0.922895E-01
     1        499     1     3  0.519199E+02  0.519199E+02  0.138434E+00
     1        500     1     5  0.521275E+02  0.521275E+02  0.207651E+00
     1        501     1     5  0.523352E+02  0.523352E+02  0.207651E+00
     1        502     1U    5  0.523352E+02  0.523352E+02  0.207651E+00
     1        502     2     3  0.523871E+02  0.523871E+02  0.519128E-01
     1        503     1     4  0.524390E+02  0.524390E+02  0.519128E-01
     1        504     1     4  0.525169E+02  0.525169E+02  0.778692E-01
     1        505     1     4  0.526337E+02  0.526337E+02  0.116804E+00
     1        506     1     4  0.528089E+02  0.528089E+02  0.175206E+00
     1        507     1     4  0.530717E+02  0.530717E+02  0.262809E+00
     1        508     1     4  0.534659E+02  0.534659E+02  0.394213E+00
     1        509     1U    4  0.534659E+02  0.534659E+02  0.591319E+00
     1        509     2U    5  0.534659E+02  0.534659E+02  0.147830E+00
     1        509     3     3  0.535028E+02  0.535028E+02  0.369575E-01
     1        510     1     3  0.535398E+02  0.535398E+02  0.369575E-01
     1        511     1     3  0.535952E+02  0.535952E+02  0.554362E-01
     1        512     1     3  0.536784E+02  0.536784E+02  0.831543E-01
     1        513     1     4  0.538031E+02  0.538031E+02  0.124731E+00
     1        514     1     9  0.539902E+02  0.539902E+02  0.187097E+00
     1        515     1     5  0.541773E+02  0.541773E+02  0.187097E+00
     1        516     1     5  0.543644E+02  0.543644E+02  0.187097E+00
     1        517     1     4  0.545515E+02  0.545515E+02  0.187097E+00
     1        518     1U    5  0.545515E+02  0.545515E+02  0.187097E+00
     1        518     2     4  0.545983E+02  0.545983E+02  0.467743E-01
     1        519     1     4  0.546451E+02  0.546451E+02  0.467743E-01
     1        520     1     4  0.547152E+02  0.547152E+02  0.701614E-01
     1        521     1     4  0.548205E+02  0.548205E+02  0.105242E+00
     1        522     1     4  0.549783E+02  0.549783E+02  0.157863E+00
     1        523     1     4  0.552151E+02  0.552151E+02  0.236795E+00
     1        524     1     5  0.555703E+02  0.555703E+02  0.355192E+00
     1        525     1     5  0.559255E+02  0.559255E+02  0.355192E+00
     1        526     1     5  0.562807E+02  0.562807E+02  0.355192E+00
     1        527     1     4  0.566359E+02  0.566359E+02  0.355192E+00
     1        528     1     4  0.569911E+02  0.569911E+02  0.355192E+00
     1        529     1U    5  0.569911E+02  0.569911E+02  0.532788E+00
     1        529     2     4  0.571243E+02  0.571243E+02  0.133197E+00
     1        530     1U    5  0.571243E+02  0.571243E+02  0.133197E+00
     1        530     2     3  0.571576E+02  0.571576E+02  0.332993E-01
     1        531     1     3  0.571909E+02  0.571909E+02  0.332993E-01
     1        532     1     3  0.572408E+02  0.572408E+02  0.499489E-01
     1        533     1     4  0.573158E+02  0.573158E+02  0.749234E-01
     1        534     1     4  0.574281E+02  0.574281E+02  0.112385E+00
     1        535     1U    4  0.574281E+02  0.574281E+02  0.168578E+00
     1        535     2     3  0.574703E+02  0.574703E+02  0.421444E-01
     1        536     1     3  0.575124E+02  0.575124E+02  0.421444E-01
     1        537     1     4  0.575756E+02  0.575756E+02  0.632166E-01
     1        538     1     4  0.576705E+02  0.576705E+02  0.948249E-01
     1        539     1     4  0.578127E+02  0.578127E+02  0.142237E+00
     1        540     1U    4  0.578127E+02  0.578127E+02  0.213356E+00
     1        540     2     3  0.578660E+02  0.578660E+02  0.533390E-01
     1        541     1     3  0.579194E+02  0.579194E+02  0.533390E-01
     1        542     1     4  0.579994E+02  0.579994E+02  0.800085E-01
     1        543     1     4  0.581194E+02  0.581194E+02  0.120013E+00
     1        544     1     3  0.582994E+02  0.582994E+02  0.180019E+00
     1        545     1U    5  0.582994E+02  0.582994E+02  0.270029E+00
     1        545     2     4  0.583669E+02  0.583669E+02  0.675072E-01
     1        546     1     3  0.584344E+02  0.584344E+02  0.675072E-01
     1        547     1     3  0.585357E+02  0.585357E+02  0.101261E+00
     1        548     1     4  0.586876E+02  0.586876E+02  0.151891E+00
     1        549     1U    4  0.586876E+02  0.586876E+02  0.227837E+00
     1        549     2     3  0.587446E+02  0.587446E+02  0.569592E-01
     1        550     1     4  0.588015E+02  0.588015E+02  0.569592E-01
     1        551     1     4  0.588870E+02  0.588870E+02  0.854388E-01
     1        552     1     6  0.590151E+02  0.590151E+02  0.128158E+00
     1        553     1     6  0.591433E+02  0.591433E+02  0.128158E+00
     1        554     1     4  0.592714E+02  0.592714E+02  0.128158E+00
     1        555     1     4  0.593996E+02  0.593996E+02  0.128158E+00
     1        556     1     5  0.595918E+02  0.595918E+02  0.192237E+00
     1        557     1     4  0.597841E+02  0.597841E+02  0.192237E+00
     1        558     1     3  0.599763E+02  0.599763E+02  0.192237E+00
     1        559     1     3  0.600000E+02  0.600000E+02  0.237054E-01
