SUMMARY OF JOB INFORMATION
  STEP      INC     ATT  ITRS     TOT TIME     STEP TIME      INC TIME
     1          1     1     3  0.100000E+00  0.100000E+00  0.100000E+00
     1          2     1     3  0.200000E+00  0.200000E+00  0.100000E+00
     1          3     1     3  0.350000E+00  0.350000E+00  0.150000E+00
     1          4     1     3  0.575000E+00  0.575000E+00  0.225000E+00
     1          5     1     4  0.912500E+00  0.912500E+00  0.337500E+00
     1          6     1     3  0.141875E+01  0.141875E+01  0.506250E+00
     1          7     1     3  0.217813E+01  0.217813E+01  0.759375E+00
     1          8     1U    5  0.217812E+01  0.217812E+01  0.113906E+01
     1          8     2     3  0.246289E+01  0.246289E+01  0.284766E+00
     1          9     1     5  0.274766E+01  0.274766E+01  0.284766E+00
     1         10     1     3  0.303242E+01  0.303242E+01  0.284766E+00
     1         11     1     6  0.331719E+01  0.331719E+01  0.284766E+00
     1         12     1U    4  0.331719E+01  0.331719E+01  0.284766E+00
     1         12     2     6  0.338838E+01  0.338838E+01  0.711914E-01
     1         13     1     5  0.345957E+01  0.345957E+01  0.711914E-01
     1         14     1     5  0.353076E+01  0.353076E+01  0.711914E-01
     1         15     1     6  0.360195E+01  0.360195E+01  0.711914E-01
     1         16     1     5  0.367314E+01  0.367314E+01  0.711914E-01
     1         17     1     5  0.374434E+01  0.374434E+01  0.711914E-01
     1         18     1     5  0.381553E+01  0.381553E+01  0.711914E-01
     1         19     1     5  0.388672E+01  0.388672E+01  0.711914E-01
     1         20     1     5  0.395791E+01  0.395791E+01  0.711914E-01
     1         21     1     5  0.402910E+01  0.402910E+01  0.711914E-01
     1         22     1     5  0.410029E+01  0.410029E+01  0.711914E-01
     1         23     1     5  0.417148E+01  0.417148E+01  0.711914E-01
     1         24     1     5  0.424268E+01  0.424268E+01  0.711914E-01
     1         25     1     4  0.431387E+01  0.431387E+01  0.711914E-01
     1         26     1     4  0.438506E+01  0.438506E+01  0.711914E-01
     1         27     1     5  0.449185E+01  0.449185E+01  0.106787E+00
     1         28     1     5  0.459863E+01  0.459863E+01  0.106787E+00
     1         29     1     5  0.470542E+01  0.470542E+01  0.106787E+00
     1         30     1     5  0.481221E+01  0.481221E+01  0.106787E+00
     1         31     1U    4  0.481221E+01  0.481221E+01  0.106787E+00
     1         31     2     4  0.483890E+01  0.483890E+01  0.266968E-01
     1         32     1     3  0.486560E+01  0.486560E+01  0.266968E-01
     1         33     1     4  0.490565E+01  0.490565E+01  0.400452E-01
     1         34     1     4  0.496571E+01  0.496571E+01  0.600677E-01
     1         35     1     5  0.505582E+01  0.505582E+01  0.901016E-01
     1         36     1     4  0.514592E+01  0.514592E+01  0.901016E-01
     1         37     1     6  0.523602E+01  0.523602E+01  0.901016E-01
     1         38     1     4  0.532612E+01  0.532612E+01  0.901016E-01
     1         39     1     4  0.541622E+01  0.541622E+01  0.901016E-01
     1         40     1     5  0.555137E+01  0.555137E+01  0.135152E+00
     1         41     1     5  0.568653E+01  0.568653E+01  0.135152E+00
     1         42     1     5  0.582168E+01  0.582168E+01  0.135152E+00
     1         43     1     6  0.595683E+01  0.595683E+01  0.135152E+00
     1         44     1     6  0.609198E+01  0.609198E+01  0.135152E+00
     1         45     1U    5  0.609198E+01  0.609198E+01  0.135152E+00
     1         45     2     4  0.612577E+01  0.612577E+01  0.337881E-01
     1         46     1     4  0.615956E+01  0.615956E+01  0.337881E-01
     1         47     1     3  0.621024E+01  0.621024E+01  0.506822E-01
     1         48     1     4  0.628627E+01  0.628627E+01  0.760232E-01
     1         49     1     6  0.640030E+01  0.640030E+01  0.114035E+00
     1         50     1     3  0.651434E+01  0.651434E+01  0.114035E+00
     1         51     1     4  0.662837E+01  0.662837E+01  0.114035E+00
     1         52     1     5  0.679942E+01  0.679942E+01  0.171052E+00
     1         53     1     5  0.697047E+01  0.697047E+01  0.171052E+00
     1         54     1     5  0.714153E+01  0.714153E+01  0.171052E+00
     1         55     1     5  0.731258E+01  0.731258E+01  0.171052E+00
     1         56     1     5  0.748363E+01  0.748363E+01  0.171052E+00
     1         57     1     5  0.765468E+01  0.765468E+01  0.171052E+00
     1         58     1U    5  0.765468E+01  0.765468E+01  0.171052E+00
     1         58     2     3  0.769745E+01  0.769745E+01  0.427631E-01
     1         59     1     6  0.774021E+01  0.774021E+01  0.427631E-01
     1         60     1     4  0.778297E+01  0.778297E+01  0.427631E-01
     1         61     1     4  0.782574E+01  0.782574E+01  0.427631E-01
     1         62     1     5  0.788988E+01  0.788988E+01  0.641446E-01
     1         63     1     4  0.795403E+01  0.795403E+01  0.641446E-01
     1         64     1     4  0.801817E+01  0.801817E+01  0.641446E-01
     1         65     1     4  0.811439E+01  0.811439E+01  0.962169E-01
     1         66     1     4  0.825871E+01  0.825871E+01  0.144325E+00
     1         67     1     5  0.847520E+01  0.847520E+01  0.216488E+00
     1         68     1     5  0.869169E+01  0.869169E+01  0.216488E+00
     1         69     1     5  0.890818E+01  0.890818E+01  0.216488E+00
     1         70     1U    5  0.890818E+01  0.890818E+01  0.216488E+00
     1         70     2     4  0.896230E+01  0.896230E+01  0.541220E-01
     1         71     1     4  0.901642E+01  0.901642E+01  0.541220E-01
     1         72     1     4  0.909760E+01  0.909760E+01  0.811830E-01
     1         73     1     4  0.921938E+01  0.921938E+01  0.121775E+00
     1         74     1     5  0.940204E+01  0.940204E+01  0.182662E+00
     1         75     1     5  0.958470E+01  0.958470E+01  0.182662E+00
     1         76     1     4  0.976736E+01  0.976736E+01  0.182662E+00
     1         77     1U    5  0.976736E+01  0.976736E+01  0.182662E+00
     1         77     2     6  0.981303E+01  0.981303E+01  0.456655E-01
     1         78     1     4  0.985869E+01  0.985869E+01  0.456655E-01
     1         79     1     4  0.990436E+01  0.990436E+01  0.456655E-01
     1         80     1     4  0.997286E+01  0.997286E+01  0.684982E-01
     1         81     1     4  0.100756E+02  0.100756E+02  0.102747E+00
     1         82     1     4  0.102297E+02  0.102297E+02  0.154121E+00
     1         83     1U    5  0.102297E+02  0.102297E+02  0.231181E+00
     1         83     2     4  0.102875E+02  0.102875E+02  0.577953E-01
     1         84     1     4  0.103453E+02  0.103453E+02  0.577953E-01
     1         85     1     4  0.104320E+02  0.104320E+02  0.866930E-01
     1         86     1     4  0.105620E+02  0.105620E+02  0.130040E+00
     1         87     1U    6  0.105620E+02  0.105620E+02  0.195059E+00
     1         87     2     6  0.106108E+02  0.106108E+02  0.487648E-01
     1         88     1     4  0.106596E+02  0.106596E+02  0.487648E-01
     1         89     1     4  0.107083E+02  0.107083E+02  0.487648E-01
     1         90     1     4  0.107815E+02  0.107815E+02  0.731472E-01
     1         91     1     4  0.108912E+02  0.108912E+02  0.109721E+00
     1         92     1     4  0.110558E+02  0.110558E+02  0.164581E+00
     1         93     1U    4  0.110558E+02  0.110558E+02  0.246872E+00
     1         93     2     4  0.111175E+02  0.111175E+02  0.617180E-01
     1         94     1     4  0.111792E+02  0.111792E+02  0.617180E-01
     1         95     1     4  0.112718E+02  0.112718E+02  0.925770E-01
     1         96     1     4  0.114107E+02  0.114107E+02  0.138865E+00
     1         97     1     4  0.116190E+02  0.116190E+02  0.208298E+00
     1         98     1U    4  0.116190E+02  0.116190E+02  0.312447E+00
     1         98     2     4  0.116971E+02  0.116971E+02  0.781118E-01
     1         99     1     4  0.117752E+02  0.117752E+02  0.781118E-01
     1        100     1     4  0.118924E+02  0.118924E+02  0.117168E+00
     1        101     1     5  0.120681E+02  0.120681E+02  0.175752E+00
     1        102     1     4  0.122439E+02  0.122439E+02  0.175752E+00
     1        103     1     4  0.124196E+02  0.124196E+02  0.175752E+00
     1        104     1U    5  0.124196E+02  0.124196E+02  0.263627E+00
     1        104     2     4  0.124855E+02  0.124855E+02  0.659068E-01
     1        105     1     4  0.125514E+02  0.125514E+02  0.659068E-01
     1        106     1     6  0.126503E+02  0.126503E+02  0.988603E-01
     1        107     1     6  0.127491E+02  0.127491E+02  0.988603E-01
     1        108     1     3  0.128480E+02  0.128480E+02  0.988603E-01
     1        109     1     4  0.129469E+02  0.129469E+02  0.988603E-01
     1        110     1     4  0.130952E+02  0.130952E+02  0.148290E+00
     1        111     1     4  0.133176E+02  0.133176E+02  0.222436E+00
     1        112     1U    5  0.133176E+02  0.133176E+02  0.333653E+00
     1        112     2     4  0.134010E+02  0.134010E+02  0.834133E-01
     1        113     1     4  0.134844E+02  0.134844E+02  0.834133E-01
     1        114     1     4  0.136095E+02  0.136095E+02  0.125120E+00
     1        115     1     4  0.137972E+02  0.137972E+02  0.187680E+00
     1        116     1     5  0.140787E+02  0.140787E+02  0.281520E+00
     1        117     1U    5  0.140787E+02  0.140787E+02  0.281520E+00
     1        117     2     4  0.141491E+02  0.141491E+02  0.703800E-01
     1        118     1     4  0.142195E+02  0.142195E+02  0.703800E-01
     1        119     1     3  0.143251E+02  0.143251E+02  0.105570E+00
     1        120     1     4  0.144834E+02  0.144834E+02  0.158355E+00
     1        121     1U    5  0.144834E+02  0.144834E+02  0.237533E+00
     1        121     2     4  0.145428E+02  0.145428E+02  0.593831E-01
     1        122     1     6  0.146022E+02  0.146022E+02  0.593831E-01
     1        123     1     4  0.146616E+02  0.146616E+02  0.593831E-01
     1        124     1     4  0.147210E+02  0.147210E+02  0.593831E-01
     1        125     1U    5  0.147210E+02  0.147210E+02  0.890747E-01
     1        125     2     4  0.147432E+02  0.147432E+02  0.222687E-01
     1        126     1     4  0.147655E+02  0.147655E+02  0.222687E-01
     1        127     1     3  0.147989E+02  0.147989E+02  0.334030E-01
     1        128     1     4  0.148490E+02  0.148490E+02  0.501045E-01
     1        129     1     4  0.149242E+02  0.149242E+02  0.751568E-01
     1        130     1     4  0.150369E+02  0.150369E+02  0.112735E+00
     1        131     1     4  0.152060E+02  0.152060E+02  0.169103E+00
     1        132     1     4  0.154597E+02  0.154597E+02  0.253654E+00
     1        133     1     5  0.158401E+02  0.158401E+02  0.380481E+00
     1        134     1     4  0.162206E+02  0.162206E+02  0.380481E+00
     1        135     1     5  0.166011E+02  0.166011E+02  0.380481E+00
     1        136     1     4  0.169816E+02  0.169816E+02  0.380481E+00
     1        137     1     5  0.173621E+02  0.173621E+02  0.380481E+00
     1        138     1U    4  0.173621E+02  0.173621E+02  0.380481E+00
     1        138     2     4  0.174572E+02  0.174572E+02  0.951203E-01
     1        139     1     4  0.175523E+02  0.175523E+02  0.951203E-01
     1        140     1     4  0.176950E+02  0.176950E+02  0.142680E+00
     1        141     1     4  0.179090E+02  0.179090E+02  0.214021E+00
     1        142     1     4  0.182300E+02  0.182300E+02  0.321031E+00
     1        143     1     5  0.187116E+02  0.187116E+02  0.481546E+00
     1        144     1     4  0.191931E+02  0.191931E+02  0.481546E+00
     1        145     1U    4  0.191931E+02  0.191931E+02  0.481546E+00
     1        145     2     6  0.193135E+02  0.193135E+02  0.120387E+00
     1        146     1U    5  0.193135E+02  0.193135E+02  0.120387E+00
     1        146     2     4  0.193436E+02  0.193436E+02  0.300967E-01
     1        147     1     5  0.193737E+02  0.193737E+02  0.300967E-01
     1        148     1     4  0.194038E+02  0.194038E+02  0.300967E-01
     1        149     1     4  0.194339E+02  0.194339E+02  0.300967E-01
     1        150     1     4  0.194790E+02  0.194790E+02  0.451450E-01
     1        151     1     6  0.195468E+02  0.195468E+02  0.677175E-01
     1        152     1     6  0.196145E+02  0.196145E+02  0.677175E-01
     1        153     1     4  0.196822E+02  0.196822E+02  0.677175E-01
     1        154     1     4  0.197499E+02  0.197499E+02  0.677175E-01
     1        155     1     5  0.198515E+02  0.198515E+02  0.101576E+00
     1        156     1     4  0.199531E+02  0.199531E+02  0.101576E+00
     1        157     1     5  0.200546E+02  0.200546E+02  0.101576E+00
     1        158     1     5  0.201562E+02  0.201562E+02  0.101576E+00
     1        159     1U    4  0.201562E+02  0.201562E+02  0.101576E+00
     1        159     2     4  0.201816E+02  0.201816E+02  0.253941E-01
     1        160     1     4  0.202070E+02  0.202070E+02  0.253941E-01
     1        161     1     4  0.202451E+02  0.202451E+02  0.380911E-01
     1        162     1     4  0.203022E+02  0.203022E+02  0.571366E-01
     1        163     1     4  0.203879E+02  0.203879E+02  0.857049E-01
     1        164     1     7  0.205165E+02  0.205165E+02  0.128557E+00
     1        165     1     4  0.206451E+02  0.206451E+02  0.128557E+00
     1        166     1     4  0.207736E+02  0.207736E+02  0.128557E+00
     1        167     1     7  0.209664E+02  0.209664E+02  0.192836E+00
     1        168     1     4  0.211593E+02  0.211593E+02  0.192836E+00
     1        169     1     4  0.213521E+02  0.213521E+02  0.192836E+00
     1        170     1U    5  0.213521E+02  0.213521E+02  0.289254E+00
     1        170     2     4  0.214244E+02  0.214244E+02  0.723135E-01
     1        171     1     4  0.214967E+02  0.214967E+02  0.723135E-01
     1        172     1     4  0.216052E+02  0.216052E+02  0.108470E+00
     1        173     1     4  0.217679E+02  0.217679E+02  0.162705E+00
     1        174     1     5  0.220120E+02  0.220120E+02  0.244058E+00
     1        175     1     6  0.222560E+02  0.222560E+02  0.244058E+00
     1        176     1U    4  0.222560E+02  0.222560E+02  0.244058E+00
     1        176     2     4  0.223171E+02  0.223171E+02  0.610145E-01
     1        177     1     4  0.223781E+02  0.223781E+02  0.610145E-01
     1        178     1     4  0.224696E+02  0.224696E+02  0.915218E-01
     1        179     1     4  0.226069E+02  0.226069E+02  0.137283E+00
     1        180     1     4  0.228128E+02  0.228128E+02  0.205924E+00
     1        181     1     4  0.231217E+02  0.231217E+02  0.308886E+00
     1        182     1     4  0.235850E+02  0.235850E+02  0.463329E+00
     1        183     1U    4  0.235850E+02  0.235850E+02  0.694994E+00
     1        183     2U    4  0.235850E+02  0.235850E+02  0.173748E+00
     1        183     3     4  0.236284E+02  0.236284E+02  0.434371E-01
     1        184     1     4  0.236719E+02  0.236719E+02  0.434371E-01
     1        185     1     4  0.237370E+02  0.237370E+02  0.651557E-01
     1        186     1     3  0.238348E+02  0.238348E+02  0.977335E-01
     1        187     1     4  0.239814E+02  0.239814E+02  0.146600E+00
     1        188     1     5  0.242013E+02  0.242013E+02  0.219900E+00
     1        189     1     4  0.244212E+02  0.244212E+02  0.219900E+00
     1        190     1U    4  0.244212E+02  0.244212E+02  0.219900E+00
     1        190     2     4  0.244762E+02  0.244762E+02  0.549751E-01
     1        191     1     4  0.245311E+02  0.245311E+02  0.549751E-01
     1        192     1     4  0.246136E+02  0.246136E+02  0.824626E-01
     1        193     1     6  0.247373E+02  0.247373E+02  0.123694E+00
     1        194     1     4  0.248610E+02  0.248610E+02  0.123694E+00
     1        195     1     4  0.249847E+02  0.249847E+02  0.123694E+00
     1        196     1     4  0.251702E+02  0.251702E+02  0.185541E+00
     1        197     1     4  0.254485E+02  0.254485E+02  0.278311E+00
     1        198     1U    5  0.254485E+02  0.254485E+02  0.417467E+00
     1        198     2     4  0.255529E+02  0.255529E+02  0.104367E+00
     1        199     1U    4  0.255529E+02  0.255529E+02  0.104367E+00
     1        199     2     4  0.255790E+02  0.255790E+02  0.260917E-01
     1        200     1     3  0.256051E+02  0.256051E+02  0.260917E-01
     1        201     1     3  0.256442E+02  0.256442E+02  0.391375E-01
     1        202     1     4  0.257029E+02  0.257029E+02  0.587063E-01
     1        203     1     4  0.257910E+02  0.257910E+02  0.880595E-01
     1        204     1     4  0.259231E+02  0.259231E+02  0.132089E+00
     1        205     1U    5  0.259231E+02  0.259231E+02  0.198134E+00
     1        205     2     5  0.259726E+02  0.259726E+02  0.495335E-01
     1        206     1     4  0.260221E+02  0.260221E+02  0.495335E-01
     1        207     1     4  0.260717E+02  0.260717E+02  0.495335E-01
     1        208     1     4  0.261460E+02  0.261460E+02  0.743002E-01
     1        209     1U    4  0.261460E+02  0.261460E+02  0.111450E+00
     1        209     2     4  0.261738E+02  0.261738E+02  0.278626E-01
     1        210     1     4  0.262017E+02  0.262017E+02  0.278626E-01
     1        211     1     4  0.262435E+02  0.262435E+02  0.417939E-01
     1        212     1U    4  0.262435E+02  0.262435E+02  0.626908E-01
     1        212     2     4  0.262592E+02  0.262592E+02  0.156727E-01
     1        213     1     4  0.262748E+02  0.262748E+02  0.156727E-01
     1        214     1     4  0.262983E+02  0.262983E+02  0.235090E-01
     1        215     1     4  0.263336E+02  0.263336E+02  0.352636E-01
     1        216     1     4  0.263865E+02  0.263865E+02  0.528953E-01
     1        217     1     4  0.264658E+02  0.264658E+02  0.793430E-01
     1        218     1     4  0.265849E+02  0.265849E+02  0.119015E+00
     1        219     1     4  0.267634E+02  0.267634E+02  0.178522E+00
     1        220     1     4  0.270312E+02  0.270312E+02  0.267783E+00
     1        221     1     4  0.274328E+02  0.274328E+02  0.401674E+00
     1        222     1     5  0.280353E+02  0.280353E+02  0.602511E+00
     1        223     1     6  0.286379E+02  0.286379E+02  0.602511E+00
     1        224     1     4  0.292404E+02  0.292404E+02  0.602511E+00
     1        225     1     4  0.298429E+02  0.298429E+02  0.602511E+00
     1        226     1     5  0.307466E+02  0.307466E+02  0.903766E+00
     1        227     1U    5  0.307466E+02  0.307466E+02  0.903766E+00
     1        227     2     4  0.309726E+02  0.309726E+02  0.225942E+00
     1        228     1     4  0.311985E+02  0.311985E+02  0.225942E+00
     1        229     1U    5  0.311985E+02  0.311985E+02  0.338912E+00
     1        229     2     4  0.312833E+02  0.312833E+02  0.847281E-01
     1        230     1     5  0.313680E+02  0.313680E+02  0.847281E-01
     1        231     1     4  0.314527E+02  0.314527E+02  0.847281E-01
     1        232     1     4  0.315374E+02  0.315374E+02  0.847281E-01
     1        233     1     4  0.316645E+02  0.316645E+02  0.127092E+00
     1        234     1     4  0.318552E+02  0.318552E+02  0.190638E+00
     1        235     1     4  0.321411E+02  0.321411E+02  0.285957E+00
     1        236     1U    4  0.321411E+02  0.321411E+02  0.428936E+00
     1        236     2     4  0.322484E+02  0.322484E+02  0.107234E+00
     1        237     1     7  0.323556E+02  0.323556E+02  0.107234E+00
     1        238     1U    6  0.323556E+02  0.323556E+02  0.107234E+00
     1        238     2     4  0.323824E+02  0.323824E+02  0.268085E-01
     1        239     1     4  0.324092E+02  0.324092E+02  0.268085E-01
     1        240     1     3  0.324494E+02  0.324494E+02  0.402128E-01
     1        241     1     4  0.325097E+02  0.325097E+02  0.603191E-01
     1        242     1     4  0.326002E+02  0.326002E+02  0.904787E-01
     1        243     1     4  0.327359E+02  0.327359E+02  0.135718E+00
     1        244     1     4  0.329395E+02  0.329395E+02  0.203577E+00
     1        245     1U    5  0.329395E+02  0.329395E+02  0.305366E+00
     1        245     2     4  0.330159E+02  0.330159E+02  0.763414E-01
     1        246     1     4  0.330922E+02  0.330922E+02  0.763414E-01
     1        247     1     6  0.332067E+02  0.332067E+02  0.114512E+00
     1        248     1     4  0.333212E+02  0.333212E+02  0.114512E+00
     1        249     1     4  0.334357E+02  0.334357E+02  0.114512E+00
     1        250     1     4  0.336075E+02  0.336075E+02  0.171768E+00
     1        251     1     4  0.338652E+02  0.338652E+02  0.257652E+00
     1        252     1     4  0.342516E+02  0.342516E+02  0.386478E+00
     1        253     1     6  0.348314E+02  0.348314E+02  0.579718E+00
     1        254     1     4  0.354111E+02  0.354111E+02  0.579718E+00
     1        255     1     4  0.359908E+02  0.359908E+02  0.579718E+00
     1        256     1     4  0.368604E+02  0.368604E+02  0.869576E+00
     1        257     1     4  0.381647E+02  0.381647E+02  0.130436E+01
     1        258     1U    6  0.381647E+02  0.381647E+02  0.195655E+01
     1        258     2     4  0.386539E+02  0.386539E+02  0.489137E+00
     1        259     1U    5  0.386539E+02  0.386539E+02  0.489137E+00
     1        259     2     4  0.387762E+02  0.387762E+02  0.122284E+00
     1        260     1     4  0.388984E+02  0.388984E+02  0.122284E+00
     1        261     1     6  0.390819E+02  0.390819E+02  0.183426E+00
     1        262     1     4  0.392653E+02  0.392653E+02  0.183426E+00
     1        263     1     4  0.394487E+02  0.394487E+02  0.183426E+00
     1        264     1     4  0.397239E+02  0.397239E+02  0.275139E+00
     1        265     1     4  0.401366E+02  0.401366E+02  0.412709E+00
     1        266     1     4  0.407556E+02  0.407556E+02  0.619064E+00
     1        267     1U    4  0.407556E+02  0.407556E+02  0.928595E+00
     1        267     2     4  0.409878E+02  0.409878E+02  0.232149E+00
     1        268     1     4  0.412199E+02  0.412199E+02  0.232149E+00
     1        269     1     4  0.415681E+02  0.415681E+02  0.348223E+00
     1        270     1     4  0.420905E+02  0.420905E+02  0.522335E+00
     1        271     1U    4  0.420905E+02  0.420905E+02  0.783502E+00
     1        271     2     6  0.422864E+02  0.422864E+02  0.195876E+00
     1        272     1     5  0.424822E+02  0.424822E+02  0.195876E+00
     1        273     1     4  0.426781E+02  0.426781E+02  0.195876E+00
     1        274     1     4  0.428740E+02  0.428740E+02  0.195876E+00
     1        275     1     4  0.431678E+02  0.431678E+02  0.293813E+00
     1        276     1U    4  0.431678E+02  0.431678E+02  0.440720E+00
     1        276     2     4  0.432780E+02  0.432780E+02  0.110180E+00
     1        277     1U    5  0.432780E+02  0.432780E+02  0.110180E+00
     1        277     2     4  0.433055E+02  0.433055E+02  0.275450E-01
     1        278     1     4  0.433331E+02  0.433331E+02  0.275450E-01
     1        279     1     4  0.433744E+02  0.433744E+02  0.413175E-01
     1        280     1     4  0.434364E+02  0.434364E+02  0.619763E-01
     1        281     1U    4  0.434364E+02  0.434364E+02  0.929644E-01
     1        281     2     4  0.434596E+02  0.434596E+02  0.232411E-01
     1        282     1     4  0.434828E+02  0.434828E+02  0.232411E-01
     1        283     1     4  0.435177E+02  0.435177E+02  0.348616E-01
     1        284     1     4  0.435700E+02  0.435700E+02  0.522925E-01
     1        285     1     4  0.436484E+02  0.436484E+02  0.784387E-01
     1        286     1     4  0.437661E+02  0.437661E+02  0.117658E+00
     1        287     1     4  0.439426E+02  0.439426E+02  0.176487E+00
     1        288     1     4  0.442073E+02  0.442073E+02  0.264731E+00
     1        289     1     4  0.446044E+02  0.446044E+02  0.397096E+00
     1        290     1U    4  0.446044E+02  0.446044E+02  0.595644E+00
     1        290     2     4  0.447533E+02  0.447533E+02  0.148911E+00
     1        291     1     4  0.449022E+02  0.449022E+02  0.148911E+00
     1        292     1     4  0.451256E+02  0.451256E+02  0.223366E+00
     1        293     1     4  0.454606E+02  0.454606E+02  0.335050E+00
     1        294     1     4  0.459632E+02  0.459632E+02  0.502575E+00
     1        295     1U    4  0.459632E+02  0.459632E+02  0.753862E+00
     1        295     2     4  0.461517E+02  0.461517E+02  0.188465E+00
     1        296     1     4  0.463402E+02  0.463402E+02  0.188465E+00
     1        297     1     4  0.466229E+02  0.466229E+02  0.282698E+00
     1        298     1U    4  0.466229E+02  0.466229E+02  0.424047E+00
     1        298     2     4  0.467289E+02  0.467289E+02  0.106012E+00
     1        299     1     4  0.468349E+02  0.468349E+02  0.106012E+00
     1        300     1     4  0.469939E+02  0.469939E+02  0.159018E+00
     1        301     1U    4  0.469939E+02  0.469939E+02  0.238527E+00
     1        301     2     4  0.470535E+02  0.470535E+02  0.596316E-01
     1        302     1     6  0.471132E+02  0.471132E+02  0.596316E-01
     1        303     1     4  0.471728E+02  0.471728E+02  0.596316E-01
     1        304     1     5  0.472324E+02  0.472324E+02  0.596316E-01
     1        305     1     3  0.472920E+02  0.472920E+02  0.596316E-01
     1        306     1     3  0.473517E+02  0.473517E+02  0.596316E-01
     1        307     1     3  0.474411E+02  0.474411E+02  0.894475E-01
     1        308     1     4  0.475753E+02  0.475753E+02  0.134171E+00
     1        309     1U    5  0.475753E+02  0.475753E+02  0.201257E+00
     1        309     2     5  0.476256E+02  0.476256E+02  0.503142E-01
     1        310     1     3  0.476759E+02  0.476759E+02  0.503142E-01
     1        311     1U    4  0.476759E+02  0.476759E+02  0.503142E-01
     1        311     2     3  0.476885E+02  0.476885E+02  0.125786E-01
     1        312     1     3  0.477011E+02  0.477011E+02  0.125786E-01
     1        313     1     3  0.477200E+02  0.477200E+02  0.188678E-01
     1        314     1     3  0.477483E+02  0.477483E+02  0.283017E-01
     1        315     1     4  0.477907E+02  0.477907E+02  0.424526E-01
     1        316     1     5  0.478544E+02  0.478544E+02  0.636789E-01
     1        317     1     3  0.479181E+02  0.479181E+02  0.636789E-01
     1        318     1     4  0.479817E+02  0.479817E+02  0.636789E-01
     1        319     1     4  0.480773E+02  0.480773E+02  0.955184E-01
     1        320     1     4  0.482205E+02  0.482205E+02  0.143278E+00
     1        321     1U    4  0.482205E+02  0.482205E+02  0.214916E+00
     1        321     2     4  0.482743E+02  0.482743E+02  0.537291E-01
     1        322     1     4  0.483280E+02  0.483280E+02  0.537291E-01
     1        323     1     3  0.484086E+02  0.484086E+02  0.805936E-01
     1        324     1     4  0.485295E+02  0.485295E+02  0.120890E+00
     1        325     1     4  0.487108E+02  0.487108E+02  0.181336E+00
     1        326     1     4  0.489828E+02  0.489828E+02  0.272003E+00
     1        327     1U    4  0.489828E+02  0.489828E+02  0.408005E+00
     1        327     2     6  0.490848E+02  0.490848E+02  0.102001E+00
     1        328     1     4  0.491868E+02  0.491868E+02  0.102001E+00
     1        329     1     4  0.492888E+02  0.492888E+02  0.102001E+00
     1        330     1     4  0.494418E+02  0.494418E+02  0.153002E+00
     1        331     1     4  0.496713E+02  0.496713E+02  0.229503E+00
     1        332     1     4  0.500156E+02  0.500156E+02  0.344254E+00
     1        333     1     4  0.505320E+02  0.505320E+02  0.516382E+00
     1        334     1U    5  0.505320E+02  0.505320E+02  0.774572E+00
     1        334     2     4  0.507256E+02  0.507256E+02  0.193643E+00
     1        335     1     4  0.509193E+02  0.509193E+02  0.193643E+00
     1        336     1     5  0.512097E+02  0.512097E+02  0.290465E+00
     1        337     1     4  0.515002E+02  0.515002E+02  0.290465E+00
     1        338     1     4  0.517906E+02  0.517906E+02  0.290465E+00
     1        339     1     3  0.522263E+02  0.522263E+02  0.435697E+00
     1        340     1U    5  0.522263E+02  0.522263E+02  0.653545E+00
     1        340     2U    4  0.522263E+02  0.522263E+02  0.163386E+00
     1        340     3     4  0.522672E+02  0.522672E+02  0.408466E-01
     1        341     1     3  0.523080E+02  0.523080E+02  0.408466E-01
     1        342     1     4  0.523693E+02  0.523693E+02  0.612699E-01
     1        343     1     3  0.524612E+02  0.524612E+02  0.919048E-01
     1        344     1U    4  0.524612E+02  0.524612E+02  0.137857E+00
     1        344     2     3  0.524957E+02  0.524957E+02  0.344643E-01
     1        345     1     3  0.525301E+02  0.525301E+02  0.344643E-01
     1        346     1     3  0.525818E+02  0.525818E+02  0.516965E-01
     1        347     1     3  0.526594E+02  0.526594E+02  0.775447E-01
     1        348     1     3  0.527757E+02  0.527757E+02  0.116317E+00
     1        349     1U    4  0.527757E+02  0.527757E+02  0.174476E+00
     1        349     2     4  0.528193E+02  0.528193E+02  0.436189E-01
     1        350     1     4  0.528629E+02  0.528629E+02  0.436189E-01
     1        351     1     4  0.529284E+02  0.529284E+02  0.654283E-01
     1        352     1     6  0.530265E+02  0.530265E+02  0.981425E-01
     1        353     1     4  0.531246E+02  0.531246E+02  0.981425E-01
     1        354     1     4  0.532228E+02  0.532228E+02  0.981425E-01
     1        355     1     6  0.533700E+02  0.533700E+02  0.147214E+00
     1        356     1     4  0.535172E+02  0.535172E+02  0.147214E+00
     1        357     1     4  0.536644E+02  0.536644E+02  0.147214E+00
     1        358     1     4  0.538853E+02  0.538853E+02  0.220821E+00
     1        359     1     4  0.542165E+02  0.542165E+02  0.331231E+00
     1        360     1U    4  0.542165E+02  0.542165E+02  0.496846E+00
     1        360     2     3  0.543407E+02  0.543407E+02  0.124212E+00
     1        361     1     4  0.544649E+02  0.544649E+02  0.124212E+00
     1        362     1     6  0.546512E+02  0.546512E+02  0.186317E+00
     1        363     1U    5  0.546512E+02  0.546512E+02  0.186317E+00
     1        363     2     3  0.546978E+02  0.546978E+02  0.465794E-01
     1        364     1     3  0.547444E+02  0.547444E+02  0.465794E-01
     1        365     1     3  0.548143E+02  0.548143E+02  0.698690E-01
     1        366     1     3  0.549191E+02  0.549191E+02  0.104804E+00
     1        367     1     3  0.550763E+02  0.550763E+02  0.157205E+00
     1        368     1     4  0.553121E+02  0.553121E+02  0.235808E+00
     1        369     1     4  0.556658E+02  0.556658E+02  0.353712E+00
     1        370     1U    5  0.556658E+02  0.556658E+02  0.530568E+00
     1        370     2U    5  0.556658E+02  0.556658E+02  0.132642E+00
     1        370     3     4  0.556989E+02  0.556989E+02  0.331605E-01
     1        371     1     4  0.557321E+02  0.557321E+02  0.331605E-01
     1        372     1     4  0.557818E+02  0.557818E+02  0.497407E-01
     1        373     1     4  0.558565E+02  0.558565E+02  0.746111E-01
     1        374     1U    4  0.558565E+02  0.558565E+02  0.111917E+00
     1        374     2     3  0.558844E+02  0.558844E+02  0.279792E-01
     1        375     1     3  0.559124E+02  0.559124E+02  0.279792E-01
     1        376     1     4  0.559544E+02  0.559544E+02  0.419688E-01
     1        377     1     4  0.560173E+02  0.560173E+02  0.629531E-01
     1        378     1     4  0.561118E+02  0.561118E+02  0.944297E-01
     1        379     1U    5  0.561118E+02  0.561118E+02  0.141645E+00
     1        379     2     4  0.561472E+02  0.561472E+02  0.354111E-01
     1        380     1     4  0.561826E+02  0.561826E+02  0.354111E-01
     1        381     1     4  0.562357E+02  0.562357E+02  0.531167E-01
     1        382     1     5  0.563154E+02  0.563154E+02  0.796751E-01
     1        383     1U    4  0.563154E+02  0.563154E+02  0.796751E-01
     1        383     2     3  0.563353E+02  0.563353E+02  0.199188E-01
     1        384     1     4  0.563552E+02  0.563552E+02  0.199188E-01
     1        385     1     4  0.563851E+02  0.563851E+02  0.298781E-01
     1        386     1     4  0.564299E+02  0.564299E+02  0.448172E-01
     1        387     1     3  0.564971E+02  0.564971E+02  0.672258E-01
     1        388     1     4  0.565980E+02  0.565980E+02  0.100839E+00
     1        389     1     4  0.567492E+02  0.567492E+02  0.151258E+00
     1        390     1     4  0.569761E+02  0.569761E+02  0.226887E+00
     1        391     1     4  0.573165E+02  0.573165E+02  0.340331E+00
     1        392     1U    4  0.573165E+02  0.573165E+02  0.510496E+00
     1        392     2     4  0.574441E+02  0.574441E+02  0.127624E+00
     1        393     1U    5  0.574441E+02  0.574441E+02  0.127624E+00
     1        393     2     4  0.574760E+02  0.574760E+02  0.319060E-01
     1        394     1     4  0.575079E+02  0.575079E+02  0.319060E-01
     1        395     1     4  0.575557E+02  0.575557E+02  0.478590E-01
     1        396     1     4  0.576275E+02  0.576275E+02  0.717885E-01
     1        397     1     4  0.577352E+02  0.577352E+02  0.107683E+00
     1        398     1     4  0.578967E+02  0.578967E+02  0.161524E+00
     1        399     1     4  0.581390E+02  0.581390E+02  0.242286E+00
     1        400     1     4  0.585025E+02  0.585025E+02  0.363429E+00
     1        401     1U    5  0.585025E+02  0.585025E+02  0.545144E+00
     1        401     2     4  0.586387E+02  0.586387E+02  0.136286E+00
     1        402     1     4  0.587750E+02  0.587750E+02  0.136286E+00
     1        403     1     4  0.589795E+02  0.589795E+02  0.204429E+00
     1        404     1     6  0.592861E+02  0.592861E+02  0.306644E+00
     1        405     1     4  0.595927E+02  0.595927E+02  0.306644E+00
     1        406     1     4  0.598994E+02  0.598994E+02  0.306644E+00
     1        407     1     4  0.603594E+02  0.603594E+02  0.459965E+00
     1        408     1U    5  0.603594E+02  0.603594E+02  0.689948E+00
     1        408     2     4  0.605318E+02  0.605318E+02  0.172487E+00
     1        409     1     5  0.607043E+02  0.607043E+02  0.172487E+00
     1        410     1     4  0.608768E+02  0.608768E+02  0.172487E+00
     1        411     1U    5  0.608768E+02  0.608768E+02  0.172487E+00
     1        411     2     4  0.609199E+02  0.609199E+02  0.431218E-01
     1        412     1     4  0.609631E+02  0.609631E+02  0.431218E-01
     1        413     1     4  0.610277E+02  0.610277E+02  0.646826E-01
     1        414     1     4  0.611248E+02  0.611248E+02  0.970239E-01
     1        415     1     3  0.612703E+02  0.612703E+02  0.145536E+00
     1        416     1     4  0.614886E+02  0.614886E+02  0.218304E+00
     1        417     1     4  0.618161E+02  0.618161E+02  0.327456E+00
     1        418     1     4  0.623072E+02  0.623072E+02  0.491184E+00
     1        419     1     4  0.630440E+02  0.630440E+02  0.736776E+00
     1        420     1U    4  0.630440E+02  0.630440E+02  0.110516E+01
     1        420     2U    5  0.630440E+02  0.630440E+02  0.276291E+00
     1        420     3     4  0.631131E+02  0.631131E+02  0.690727E-01
     1        421     1     4  0.631822E+02  0.631822E+02  0.690727E-01
     1        422     1     4  0.632858E+02  0.632858E+02  0.103609E+00
     1        423     1     4  0.634412E+02  0.634412E+02  0.155414E+00
     1        424     1     4  0.636743E+02  0.636743E+02  0.233120E+00
     1        425     1     4  0.640240E+02  0.640240E+02  0.349681E+00
     1        426     1     5  0.645485E+02  0.645485E+02  0.524521E+00
     1        427     1     4  0.650730E+02  0.650730E+02  0.524521E+00
     1        428     1U    4  0.650730E+02  0.650730E+02  0.524521E+00
     1        428     2     4  0.652042E+02  0.652042E+02  0.131130E+00
     1        429     1     5  0.653353E+02  0.653353E+02  0.131130E+00
     1        430     1     4  0.654664E+02  0.654664E+02  0.131130E+00
     1        431     1     4  0.655976E+02  0.655976E+02  0.131130E+00
     1        432     1U    5  0.655976E+02  0.655976E+02  0.196695E+00
     1        432     2     3  0.656467E+02  0.656467E+02  0.491738E-01
     1        433     1     3  0.656959E+02  0.656959E+02  0.491738E-01
     1        434     1     4  0.657697E+02  0.657697E+02  0.737607E-01
     1        435     1U    4  0.657697E+02  0.657697E+02  0.110641E+00
     1        435     2     4  0.657973E+02  0.657973E+02  0.276603E-01
     1        436     1     4  0.658250E+02  0.658250E+02  0.276603E-01
     1        437     1     3  0.658665E+02  0.658665E+02  0.414904E-01
     1        438     1     6  0.659287E+02  0.659287E+02  0.622356E-01
     1        439     1     3  0.659909E+02  0.659909E+02  0.622356E-01
     1        440     1     3  0.660532E+02  0.660532E+02  0.622356E-01
     1        441     1     3  0.661465E+02  0.661465E+02  0.933534E-01
     1        442     1     4  0.662866E+02  0.662866E+02  0.140030E+00
     1        443     1     4  0.664966E+02  0.664966E+02  0.210045E+00
     1        444     1     4  0.668117E+02  0.668117E+02  0.315068E+00
     1        445     1     4  0.672843E+02  0.672843E+02  0.472602E+00
     1        446     1U    4  0.672843E+02  0.672843E+02  0.708903E+00
     1        446     2     4  0.674615E+02  0.674615E+02  0.177226E+00
     1        447     1U    5  0.674615E+02  0.674615E+02  0.177226E+00
     1        447     2     4  0.675058E+02  0.675058E+02  0.443064E-01
     1        448     1     4  0.675501E+02  0.675501E+02  0.443064E-01
     1        449     1     4  0.676166E+02  0.676166E+02  0.664596E-01
     1        450     1U    8  0.676166E+02  0.676166E+02  0.996894E-01
     1        450     2     4  0.676664E+02  0.676664E+02  0.498447E-01
     1        451     1     4  0.677163E+02  0.677163E+02  0.498447E-01
     1        452     1     4  0.677910E+02  0.677910E+02  0.747671E-01
     1        453     1U    4  0.677910E+02  0.677910E+02  0.112151E+00
     1        453     2     4  0.678191E+02  0.678191E+02  0.280377E-01
     1        454     1     3  0.678471E+02  0.678471E+02  0.280377E-01
     1        455     1     4  0.678892E+02  0.678892E+02  0.420565E-01
     1        456     1     4  0.679523E+02  0.679523E+02  0.630847E-01
     1        457     1     4  0.680469E+02  0.680469E+02  0.946271E-01
     1        458     1U    4  0.680469E+02  0.680469E+02  0.141941E+00
     1        458     2     3  0.680824E+02  0.680824E+02  0.354852E-01
     1        459     1     4  0.681178E+02  0.681178E+02  0.354852E-01
     1        460     1     4  0.681711E+02  0.681711E+02  0.532277E-01
     1        461     1     4  0.682509E+02  0.682509E+02  0.798416E-01
     1        462     1U    5  0.682509E+02  0.682509E+02  0.119762E+00
     1        462     2     4  0.682809E+02  0.682809E+02  0.299406E-01
     1        463     1     4  0.683108E+02  0.683108E+02  0.299406E-01
     1        464     1     4  0.683557E+02  0.683557E+02  0.449109E-01
     1        465     1     3  0.684231E+02  0.684231E+02  0.673664E-01
     1        466     1     3  0.685241E+02  0.685241E+02  0.101050E+00
     1        467     1     3  0.686757E+02  0.686757E+02  0.151574E+00
     1        468     1     4  0.689031E+02  0.689031E+02  0.227361E+00
     1        469     1     4  0.692441E+02  0.692441E+02  0.341042E+00
     1        470     1     4  0.697557E+02  0.697557E+02  0.511563E+00
     1        471     1U    4  0.697557E+02  0.697557E+02  0.767345E+00
     1        471     2     6  0.699475E+02  0.699475E+02  0.191836E+00
     1        472     1     4  0.701393E+02  0.701393E+02  0.191836E+00
     1        473     1     4  0.703312E+02  0.703312E+02  0.191836E+00
     1        474     1     4  0.706189E+02  0.706189E+02  0.287754E+00
     1        475     1     4  0.710506E+02  0.710506E+02  0.431632E+00
     1        476     1     4  0.716980E+02  0.716980E+02  0.647447E+00
     1        477     1     4  0.726692E+02  0.726692E+02  0.971171E+00
     1        478     1     4  0.741259E+02  0.741259E+02  0.145676E+01
     1        479     1     4  0.763111E+02  0.763111E+02  0.218513E+01
     1        480     1U    4  0.763111E+02  0.763111E+02  0.327770E+01
     1        480     2U    5  0.763111E+02  0.763111E+02  0.819425E+00
     1        480     3     6  0.765159E+02  0.765159E+02  0.204856E+00
     1        481     1     4  0.767208E+02  0.767208E+02  0.204856E+00
     1        482     1     4  0.769256E+02  0.769256E+02  0.204856E+00
     1        483     1     4  0.772329E+02  0.772329E+02  0.307285E+00
     1        484     1     5  0.776939E+02  0.776939E+02  0.460927E+00
     1        485     1U    5  0.776939E+02  0.776939E+02  0.460927E+00
     1        485     2     4  0.778091E+02  0.778091E+02  0.115232E+00
     1        486     1     4  0.779243E+02  0.779243E+02  0.115232E+00
     1        487     1     4  0.780972E+02  0.780972E+02  0.172848E+00
     1        488     1     3  0.783564E+02  0.783564E+02  0.259271E+00
     1        489     1     4  0.787453E+02  0.787453E+02  0.388907E+00
     1        490     1     4  0.793287E+02  0.793287E+02  0.583361E+00
     1        491     1     6  0.802037E+02  0.802037E+02  0.875041E+00
     1        492     1     4  0.810788E+02  0.810788E+02  0.875041E+00
     1        493     1U    4  0.810788E+02  0.810788E+02  0.875041E+00
     1        493     2     4  0.812975E+02  0.812975E+02  0.218760E+00
     1        494     1     4  0.815163E+02  0.815163E+02  0.218760E+00
     1        495     1     4  0.818444E+02  0.818444E+02  0.328140E+00
     1        496     1U    5  0.818444E+02  0.818444E+02  0.492210E+00
     1        496     2     4  0.819675E+02  0.819675E+02  0.123053E+00
     1        497     1     4  0.820905E+02  0.820905E+02  0.123053E+00
     1        498     1     4  0.822751E+02  0.822751E+02  0.184579E+00
     1        499     1U    4  0.822751E+02  0.822751E+02  0.276868E+00
     1        499     2     4  0.823443E+02  0.823443E+02  0.692171E-01
     1        500     1     4  0.824136E+02  0.824136E+02  0.692171E-01
     1        501     1     4  0.825174E+02  0.825174E+02  0.103826E+00
     1        502     1     4  0.826731E+02  0.826731E+02  0.155738E+00
     1        503     1     4  0.829067E+02  0.829067E+02  0.233608E+00
     1        504     1     4  0.832571E+02  0.832571E+02  0.350412E+00
     1        505     1     4  0.837828E+02  0.837828E+02  0.525617E+00
     1        506     1     4  0.845712E+02  0.845712E+02  0.788426E+00
     1        507     1     4  0.857538E+02  0.857538E+02  0.118264E+01
     1        508     1     4  0.875278E+02  0.875278E+02  0.177396E+01
     1        509     1     4  0.901887E+02  0.901887E+02  0.266094E+01
     1        510     1U    5  0.901887E+02  0.901887E+02  0.399141E+01
     1        510     2     4  0.911866E+02  0.911866E+02  0.997852E+00
     1        511     1U    5  0.911866E+02  0.911866E+02  0.997852E+00
     1        511     2     4  0.914360E+02  0.914360E+02  0.249463E+00
     1        512     1     4  0.916855E+02  0.916855E+02  0.249463E+00
     1        513     1     4  0.920597E+02  0.920597E+02  0.374194E+00
     1        514     1U    4  0.920597E+02  0.920597E+02  0.561292E+00
     1        514     2     4  0.922000E+02  0.922000E+02  0.140323E+00
     1        515     1     4  0.923403E+02  0.923403E+02  0.140323E+00
     1        516     1     4  0.925508E+02  0.925508E+02  0.210484E+00
     1        517     1     4  0.928665E+02  0.928665E+02  0.315726E+00
     1        518     1U    4  0.928665E+02  0.928665E+02  0.473590E+00
     1        518     2     3  0.929849E+02  0.929849E+02  0.118397E+00
     1        519     1     5  0.931033E+02  0.931033E+02  0.118397E+00
     1        520     1     4  0.932217E+02  0.932217E+02  0.118397E+00
     1        521     1     3  0.933401E+02  0.933401E+02  0.118397E+00
     1        522     1     3  0.935177E+02  0.935177E+02  0.177596E+00
     1        523     1     4  0.937841E+02  0.937841E+02  0.266394E+00
     1        524     1     4  0.941837E+02  0.941837E+02  0.399591E+00
     1        525     1     4  0.947831E+02  0.947831E+02  0.599387E+00
     1        526     1U    5  0.947831E+02  0.947831E+02  0.899080E+00
     1        526     2     3  0.950079E+02  0.950079E+02  0.224770E+00
     1        527     1     4  0.952326E+02  0.952326E+02  0.224770E+00
     1        528     1U    5  0.952326E+02  0.952326E+02  0.337155E+00
     1        528     2     3  0.953169E+02  0.953169E+02  0.842888E-01
     1        529     1     3  0.954012E+02  0.954012E+02  0.842888E-01
     1        530     1     3  0.955277E+02  0.955277E+02  0.126433E+00
     1        531     1     3  0.957173E+02  0.957173E+02  0.189650E+00
     1        532     1     4  0.960018E+02  0.960018E+02  0.284475E+00
     1        533     1     4  0.964285E+02  0.964285E+02  0.426712E+00
     1        534     1     4  0.970686E+02  0.970686E+02  0.640068E+00
     1        535     1     4  0.980287E+02  0.980287E+02  0.960102E+00
     1        536     1     4  0.994688E+02  0.994688E+02  0.144015E+01
     1        537     1     4  0.101629E+03  0.101629E+03  0.216023E+01
     1        538     1     6  0.104869E+03  0.104869E+03  0.324034E+01
     1        539     1     6  0.108110E+03  0.108110E+03  0.324034E+01
     1        540     1U    5  0.108110E+03  0.108110E+03  0.324034E+01
     1        540     2     4  0.108920E+03  0.108920E+03  0.810086E+00
     1        541     1     4  0.109730E+03  0.109730E+03  0.810086E+00
     1        542     1U    5  0.109730E+03  0.109730E+03  0.121513E+01
     1        542     2     4  0.110034E+03  0.110034E+03  0.303782E+00
     1        543     1     4  0.110337E+03  0.110337E+03  0.303782E+00
     1        544     1     4  0.110793E+03  0.110793E+03  0.455673E+00
     1        545     1U    4  0.110793E+03  0.110793E+03  0.683510E+00
     1        545     2     4  0.110964E+03  0.110964E+03  0.170878E+00
     1        546     1     4  0.111135E+03  0.111135E+03  0.170878E+00
     1        547     1     4  0.111391E+03  0.111391E+03  0.256316E+00
     1        548     1     3  0.111776E+03  0.111776E+03  0.384474E+00
     1        549     1     4  0.112352E+03  0.112352E+03  0.576712E+00
     1        550     1U    5  0.112352E+03  0.112352E+03  0.865068E+00
     1        550     2     7  0.112569E+03  0.112569E+03  0.216267E+00
     1        551     1U    5  0.112569E+03  0.112569E+03  0.216267E+00
     1        551     2     4  0.112623E+03  0.112623E+03  0.540667E-01
     1        552     1     4  0.112677E+03  0.112677E+03  0.540667E-01
     1        553     1     3  0.112758E+03  0.112758E+03  0.811001E-01
     1        554     1     3  0.112880E+03  0.112880E+03  0.121650E+00
     1        555     1     3  0.113062E+03  0.113062E+03  0.182475E+00
     1        556     1     6  0.113336E+03  0.113336E+03  0.273713E+00
     1        557     1     3  0.113609E+03  0.113609E+03  0.273713E+00
     1        558     1     4  0.113883E+03  0.113883E+03  0.273713E+00
     1        559     1     4  0.114294E+03  0.114294E+03  0.410569E+00
     1        560     1     4  0.114910E+03  0.114910E+03  0.615854E+00
     1        561     1     4  0.115833E+03  0.115833E+03  0.923781E+00
     1        562     1     4  0.117219E+03  0.117219E+03  0.138567E+01
     1        563     1U    5  0.117219E+03  0.117219E+03  0.207851E+01
     1        563     2U    5  0.117219E+03  0.117219E+03  0.519627E+00
     1        563     3     4  0.117349E+03  0.117349E+03  0.129907E+00
     1        564     1     5  0.117479E+03  0.117479E+03  0.129907E+00
     1        565     1     4  0.117609E+03  0.117609E+03  0.129907E+00
     1        566     1     4  0.117739E+03  0.117739E+03  0.129907E+00
     1        567     1     4  0.117934E+03  0.117934E+03  0.194860E+00
     1        568     1     4  0.118226E+03  0.118226E+03  0.292290E+00
     1        569     1     4  0.118664E+03  0.118664E+03  0.438435E+00
     1        570     1     4  0.119322E+03  0.119322E+03  0.657652E+00
     1        571     1     4  0.120308E+03  0.120308E+03  0.986479E+00
     1        572     1     4  0.121788E+03  0.121788E+03  0.147972E+01
     1        573     1U    5  0.121788E+03  0.121788E+03  0.221958E+01
     1        573     2U    4  0.121788E+03  0.121788E+03  0.554894E+00
     1        573     3     4  0.121927E+03  0.121927E+03  0.138724E+00
     1        574     1     4  0.122066E+03  0.122066E+03  0.138724E+00
     1        575     1U    5  0.122066E+03  0.122066E+03  0.208085E+00
     1        575     2     4  0.122118E+03  0.122118E+03  0.520213E-01
     1        576     1     3  0.122170E+03  0.122170E+03  0.520213E-01
     1        577     1     3  0.122248E+03  0.122248E+03  0.780320E-01
     1        578     1     4  0.122365E+03  0.122365E+03  0.117048E+00
     1        579     1     4  0.122540E+03  0.122540E+03  0.175572E+00
     1        580     1     4  0.122804E+03  0.122804E+03  0.263358E+00
     1        581     1     7  0.123199E+03  0.123199E+03  0.395037E+00
     1        582     1     4  0.123594E+03  0.123594E+03  0.395037E+00
     1        583     1     4  0.123989E+03  0.123989E+03  0.395037E+00
     1        584     1U    5  0.123989E+03  0.123989E+03  0.592555E+00
     1        584     2     4  0.124137E+03  0.124137E+03  0.148139E+00
     1        585     1     4  0.124285E+03  0.124285E+03  0.148139E+00
     1        586     1     4  0.124507E+03  0.124507E+03  0.222208E+00
     1        587     1     4  0.124841E+03  0.124841E+03  0.333312E+00
     1        588     1     4  0.125340E+03  0.125340E+03  0.499969E+00
     1        589     1     4  0.126090E+03  0.126090E+03  0.749953E+00
     1        590     1U    4  0.126090E+03  0.126090E+03  0.112493E+01
     1        590     2     4  0.126372E+03  0.126372E+03  0.281232E+00
     1        591     1     4  0.126653E+03  0.126653E+03  0.281232E+00
     1        592     1     4  0.127075E+03  0.127075E+03  0.421849E+00
     1        593     1     4  0.127708E+03  0.127708E+03  0.632773E+00
     1        594     1     4  0.128657E+03  0.128657E+03  0.949159E+00
     1        595     1U    5  0.128657E+03  0.128657E+03  0.142374E+01
     1        595     2     4  0.129013E+03  0.129013E+03  0.355935E+00
     1        596     1     4  0.129369E+03  0.129369E+03  0.355935E+00
     1        597     1     4  0.129902E+03  0.129902E+03  0.533902E+00
     1        598     1U    5  0.129902E+03  0.129902E+03  0.800853E+00
     1        598     2     4  0.130103E+03  0.130103E+03  0.200213E+00
     1        599     1     4  0.130303E+03  0.130303E+03  0.200213E+00
     1        600     1     4  0.130603E+03  0.130603E+03  0.300320E+00
     1        601     1     4  0.131054E+03  0.131054E+03  0.450480E+00
     1        602     1     4  0.131729E+03  0.131729E+03  0.675720E+00
     1        603     1     4  0.132743E+03  0.132743E+03  0.101358E+01
     1        604     1U    4  0.132743E+03  0.132743E+03  0.152037E+01
     1        604     2     4  0.133123E+03  0.133123E+03  0.380092E+00
     1        605     1     5  0.133503E+03  0.133503E+03  0.380092E+00
     1        606     1     4  0.133883E+03  0.133883E+03  0.380092E+00
     1        607     1U    4  0.133883E+03  0.133883E+03  0.380092E+00
     1        607     2     4  0.133978E+03  0.133978E+03  0.950231E-01
     1        608     1     4  0.134073E+03  0.134073E+03  0.950231E-01
     1        609     1     3  0.134216E+03  0.134216E+03  0.142535E+00
     1        610     1     4  0.134430E+03  0.134430E+03  0.213802E+00
     1        611     1     4  0.134750E+03  0.134750E+03  0.320703E+00
     1        612     1     4  0.135231E+03  0.135231E+03  0.481054E+00
     1        613     1     4  0.135953E+03  0.135953E+03  0.721582E+00
     1        614     1     4  0.137035E+03  0.137035E+03  0.108237E+01
     1        615     1     4  0.138659E+03  0.138659E+03  0.162356E+01
     1        616     1U    5  0.138659E+03  0.138659E+03  0.243534E+01
     1        616     2     4  0.139268E+03  0.139268E+03  0.608835E+00
     1        617     1U    4  0.139268E+03  0.139268E+03  0.608835E+00
     1        617     2     4  0.139420E+03  0.139420E+03  0.152209E+00
     1        618     1     4  0.139572E+03  0.139572E+03  0.152209E+00
     1        619     1     5  0.139800E+03  0.139800E+03  0.228313E+00
     1        620     1     4  0.140029E+03  0.140029E+03  0.228313E+00
     1        621     1     3  0.140257E+03  0.140257E+03  0.228313E+00
     1        622     1     4  0.140600E+03  0.140600E+03  0.342469E+00
     1        623     1     4  0.141113E+03  0.141113E+03  0.513704E+00
     1        624     1U    4  0.141113E+03  0.141113E+03  0.770556E+00
     1        624     2     4  0.141306E+03  0.141306E+03  0.192639E+00
     1        625     1     4  0.141499E+03  0.141499E+03  0.192639E+00
     1        626     1     6  0.141788E+03  0.141788E+03  0.288959E+00
     1        627     1     4  0.142076E+03  0.142076E+03  0.288959E+00
     1        628     1U    5  0.142076E+03  0.142076E+03  0.288959E+00
     1        628     2     4  0.142149E+03  0.142149E+03  0.722396E-01
     1        629     1     4  0.142221E+03  0.142221E+03  0.722396E-01
     1        630     1     4  0.142329E+03  0.142329E+03  0.108359E+00
     1        631     1     4  0.142492E+03  0.142492E+03  0.162539E+00
     1        632     1     4  0.142736E+03  0.142736E+03  0.243809E+00
     1        633     1     4  0.143101E+03  0.143101E+03  0.365713E+00
     1        634     1U    5  0.143101E+03  0.143101E+03  0.548570E+00
     1        634     2     4  0.143239E+03  0.143239E+03  0.137142E+00
     1        635     1     4  0.143376E+03  0.143376E+03  0.137142E+00
     1        636     1     4  0.143581E+03  0.143581E+03  0.205714E+00
     1        637     1     4  0.143890E+03  0.143890E+03  0.308571E+00
     1        638     1     4  0.144353E+03  0.144353E+03  0.462856E+00
     1        639     1     3  0.145047E+03  0.145047E+03  0.694284E+00
     1        640     1U    4  0.145047E+03  0.145047E+03  0.104143E+01
     1        640     2     4  0.145307E+03  0.145307E+03  0.260356E+00
     1        641     1     4  0.145568E+03  0.145568E+03  0.260356E+00
     1        642     1U    6  0.145568E+03  0.145568E+03  0.390535E+00
     1        642     2     4  0.145665E+03  0.145665E+03  0.976336E-01
     1        643     1     4  0.145763E+03  0.145763E+03  0.976336E-01
     1        644     1     6  0.145910E+03  0.145910E+03  0.146450E+00
     1        645     1U    5  0.145910E+03  0.145910E+03  0.146450E+00
     1        645     2U    5  0.145910E+03  0.145910E+03  0.366126E-01
     1        645     3     3  0.145919E+03  0.145919E+03  0.915315E-02
     1        646     1     4  0.145928E+03  0.145928E+03  0.915315E-02
     1        647     1     3  0.145942E+03  0.145942E+03  0.137297E-01
     1        648     1     4  0.145962E+03  0.145962E+03  0.205946E-01
     1        649     1     3  0.145993E+03  0.145993E+03  0.308919E-01
     1        650     1     4  0.146039E+03  0.146039E+03  0.463378E-01
     1        651     1     4  0.146109E+03  0.146109E+03  0.695068E-01
     1        652     1     4  0.146213E+03  0.146213E+03  0.104260E+00
     1        653     1     4  0.146370E+03  0.146370E+03  0.156390E+00
     1        654     1     4  0.146604E+03  0.146604E+03  0.234585E+00
     1        655     1     3  0.146956E+03  0.146956E+03  0.351878E+00
     1        656     1     4  0.147484E+03  0.147484E+03  0.527817E+00
     1        657     1     6  0.148276E+03  0.148276E+03  0.791725E+00
     1        658     1     4  0.149067E+03  0.149067E+03  0.791725E+00
     1        659     1     4  0.149859E+03  0.149859E+03  0.791725E+00
     1        660     1     5  0.151047E+03  0.151047E+03  0.118759E+01
     1        661     1     5  0.152234E+03  0.152234E+03  0.118759E+01
     1        662     1     4  0.153422E+03  0.153422E+03  0.118759E+01
     1        663     1     4  0.154609E+03  0.154609E+03  0.118759E+01
     1        664     1     5  0.156391E+03  0.156391E+03  0.178138E+01
     1        665     1     4  0.158172E+03  0.158172E+03  0.178138E+01
     1        666     1U    4  0.158172E+03  0.158172E+03  0.178138E+01
     1        666     2     5  0.158617E+03  0.158617E+03  0.445346E+00
     1        667     1U    8  0.158617E+03  0.158617E+03  0.445346E+00
     1        667     2     6  0.158840E+03  0.158840E+03  0.222673E+00
     1        668     1     4  0.159063E+03  0.159063E+03  0.222673E+00
     1        669     1     4  0.159285E+03  0.159285E+03  0.222673E+00
     1        670     1U    5  0.159285E+03  0.159285E+03  0.334009E+00
     1        670     2     4  0.159369E+03  0.159369E+03  0.835023E-01
     1        671     1     4  0.159452E+03  0.159452E+03  0.835023E-01
     1        672     1     4  0.159578E+03  0.159578E+03  0.125253E+00
     1        673     1     4  0.159766E+03  0.159766E+03  0.187880E+00
     1        674     1     4  0.160047E+03  0.160047E+03  0.281820E+00
     1        675     1     4  0.160470E+03  0.160470E+03  0.422730E+00
     1        676     1     4  0.161104E+03  0.161104E+03  0.634096E+00
     1        677     1     3  0.162055E+03  0.162055E+03  0.951143E+00
     1        678     1     5  0.163482E+03  0.163482E+03  0.142672E+01
     1        679     1     4  0.164909E+03  0.164909E+03  0.142672E+01
     1        680     1     4  0.166336E+03  0.166336E+03  0.142672E+01
     1        681     1     4  0.168476E+03  0.168476E+03  0.214007E+01
     1        682     1U    4  0.168476E+03  0.168476E+03  0.321011E+01
     1        682     2U    5  0.168476E+03  0.168476E+03  0.802527E+00
     1        682     3     4  0.168676E+03  0.168676E+03  0.200632E+00
     1        683     1     4  0.168877E+03  0.168877E+03  0.200632E+00
     1        684     1     7  0.169178E+03  0.169178E+03  0.300948E+00
     1        685     1     4  0.169479E+03  0.169479E+03  0.300948E+00
     1        686     1     4  0.169780E+03  0.169780E+03  0.300948E+00
     1        687     1     6  0.170231E+03  0.170231E+03  0.451422E+00
     1        688     1     4  0.170683E+03  0.170683E+03  0.451422E+00
     1        689     1     6  0.171134E+03  0.171134E+03  0.451422E+00
     1        690     1     4  0.171585E+03  0.171585E+03  0.451422E+00
     1        691     1     6  0.172037E+03  0.172037E+03  0.451422E+00
     1        692     1     4  0.172488E+03  0.172488E+03  0.451422E+00
     1        693     1     4  0.172940E+03  0.172940E+03  0.451422E+00
     1        694     1U    4  0.172940E+03  0.172940E+03  0.677132E+00
     1        694     2U    4  0.172940E+03  0.172940E+03  0.169283E+00
     1        694     3     4  0.172982E+03  0.172982E+03  0.423208E-01
     1        695     1     4  0.173024E+03  0.173024E+03  0.423208E-01
     1        696     1     4  0.173088E+03  0.173088E+03  0.634812E-01
     1        697     1     4  0.173183E+03  0.173183E+03  0.952217E-01
     1        698     1     3  0.173326E+03  0.173326E+03  0.142833E+00
     1        699     1     3  0.173540E+03  0.173540E+03  0.214249E+00
     1        700     1     4  0.173861E+03  0.173861E+03  0.321373E+00
     1        701     1     3  0.174344E+03  0.174344E+03  0.482060E+00
     1        702     1U    4  0.174344E+03  0.174344E+03  0.723090E+00
     1        702     2U    5  0.174344E+03  0.174344E+03  0.180773E+00
     1        702     3U    5  0.174344E+03  0.174344E+03  0.451931E-01
     1        702     4     2  0.174355E+03  0.174355E+03  0.112983E-01
     1        703     1     2  0.174366E+03  0.174366E+03  0.112983E-01
     1        704     1     4  0.174383E+03  0.174383E+03  0.169474E-01
     1        705     1     4  0.174408E+03  0.174408E+03  0.254211E-01
     1        706     1     4  0.174447E+03  0.174447E+03  0.381317E-01
     1        707     1     4  0.174504E+03  0.174504E+03  0.571976E-01
     1        708     1     4  0.174590E+03  0.174590E+03  0.857963E-01
     1        709     1     4  0.174718E+03  0.174718E+03  0.128694E+00
     1        710     1     3  0.174911E+03  0.174911E+03  0.193042E+00
     1        711     1     3  0.175201E+03  0.175201E+03  0.289563E+00
     1        712     1     3  0.175635E+03  0.175635E+03  0.434344E+00
     1        713     1U    5  0.175635E+03  0.175635E+03  0.651516E+00
     1        713     2U    4  0.175635E+03  0.175635E+03  0.162879E+00
     1        713     3     4  0.175676E+03  0.175676E+03  0.407197E-01
     1        714     1     4  0.175717E+03  0.175717E+03  0.407197E-01
     1        715     1     4  0.175778E+03  0.175778E+03  0.610796E-01
     1        716     1     4  0.175869E+03  0.175869E+03  0.916194E-01
     1        717     1     4  0.176007E+03  0.176007E+03  0.137429E+00
     1        718     1     4  0.176213E+03  0.176213E+03  0.206144E+00
     1        719     1     4  0.176522E+03  0.176522E+03  0.309216E+00
     1        720     1     7  0.176986E+03  0.176986E+03  0.463823E+00
     1        721     1     5  0.177450E+03  0.177450E+03  0.463823E+00
     1        722     1U    7  0.177450E+03  0.177450E+03  0.463823E+00
     1        722     2     4  0.177566E+03  0.177566E+03  0.115956E+00
     1        723     1     4  0.177682E+03  0.177682E+03  0.115956E+00
     1        724     1     4  0.177856E+03  0.177856E+03  0.173934E+00
     1        725     1     6  0.178117E+03  0.178117E+03  0.260901E+00
     1        726     1     4  0.178377E+03  0.178377E+03  0.260901E+00
     1        727     1     4  0.178638E+03  0.178638E+03  0.260901E+00
     1        728     1     4  0.179030E+03  0.179030E+03  0.391351E+00
     1        729     1     4  0.179617E+03  0.179617E+03  0.587026E+00
     1        730     1U    5  0.179617E+03  0.179617E+03  0.880540E+00
     1        730     2     4  0.179837E+03  0.179837E+03  0.220135E+00
     1        731     1     6  0.180057E+03  0.180057E+03  0.220135E+00
     1        732     1     4  0.180277E+03  0.180277E+03  0.220135E+00
     1        733     1     4  0.180497E+03  0.180497E+03  0.220135E+00
     1        734     1U    5  0.180497E+03  0.180497E+03  0.330202E+00
     1        734     2     4  0.180580E+03  0.180580E+03  0.825506E-01
     1        735     1     4  0.180662E+03  0.180662E+03  0.825506E-01
     1        736     1     3  0.180786E+03  0.180786E+03  0.123826E+00
     1        737     1     4  0.180972E+03  0.180972E+03  0.185739E+00
     1        738     1     4  0.181251E+03  0.181251E+03  0.278608E+00
     1        739     1     4  0.181668E+03  0.181668E+03  0.417912E+00
     1        740     1     3  0.182295E+03  0.182295E+03  0.626868E+00
     1        741     1     4  0.183236E+03  0.183236E+03  0.940303E+00
     1        742     1U    5  0.183236E+03  0.183236E+03  0.141045E+01
     1        742     2     4  0.183588E+03  0.183588E+03  0.352614E+00
     1        743     1     4  0.183941E+03  0.183941E+03  0.352614E+00
     1        744     1U    4  0.183941E+03  0.183941E+03  0.528920E+00
     1        744     2     4  0.184073E+03  0.184073E+03  0.132230E+00
     1        745     1     4  0.184205E+03  0.184205E+03  0.132230E+00
     1        746     1     4  0.184404E+03  0.184404E+03  0.198345E+00
     1        747     1     3  0.184701E+03  0.184701E+03  0.297518E+00
     1        748     1     3  0.185147E+03  0.185147E+03  0.446276E+00
     1        749     1     6  0.185817E+03  0.185817E+03  0.669415E+00
     1        750     1     5  0.186486E+03  0.186486E+03  0.669415E+00
     1        751     1     3  0.187156E+03  0.187156E+03  0.669415E+00
     1        752     1U    4  0.187156E+03  0.187156E+03  0.669415E+00
     1        752     2     3  0.187323E+03  0.187323E+03  0.167354E+00
     1        753     1     6  0.187490E+03  0.187490E+03  0.167354E+00
     1        754     1     4  0.187658E+03  0.187658E+03  0.167354E+00
     1        755     1     4  0.187825E+03  0.187825E+03  0.167354E+00
     1        756     1     3  0.188076E+03  0.188076E+03  0.251031E+00
     1        757     1     3  0.188453E+03  0.188453E+03  0.376546E+00
     1        758     1     4  0.189018E+03  0.189018E+03  0.564819E+00
     1        759     1     4  0.189865E+03  0.189865E+03  0.847228E+00
     1        760     1U    5  0.189865E+03  0.189865E+03  0.127084E+01
     1        760     2     4  0.190182E+03  0.190182E+03  0.317711E+00
     1        761     1     4  0.190500E+03  0.190500E+03  0.317711E+00
     1        762     1     3  0.190977E+03  0.190977E+03  0.476566E+00
     1        763     1U    5  0.190977E+03  0.190977E+03  0.714849E+00
     1        763     2     4  0.191155E+03  0.191155E+03  0.178712E+00
     1        764     1     4  0.191334E+03  0.191334E+03  0.178712E+00
     1        765     1     4  0.191602E+03  0.191602E+03  0.268068E+00
     1        766     1     4  0.192004E+03  0.192004E+03  0.402102E+00
     1        767     1U    6  0.192004E+03  0.192004E+03  0.603154E+00
     1        767     2     3  0.192155E+03  0.192155E+03  0.150788E+00
     1        768     1     4  0.192306E+03  0.192306E+03  0.150788E+00
     1        769     1     4  0.192532E+03  0.192532E+03  0.226183E+00
     1        770     1     4  0.192871E+03  0.192871E+03  0.339274E+00
     1        771     1     6  0.193380E+03  0.193380E+03  0.508911E+00
     1        772     1U    4  0.193380E+03  0.193380E+03  0.508911E+00
     1        772     2     4  0.193508E+03  0.193508E+03  0.127228E+00
     1        773     1     4  0.193635E+03  0.193635E+03  0.127228E+00
     1        774     1     4  0.193826E+03  0.193826E+03  0.190842E+00
     1        775     1     3  0.194112E+03  0.194112E+03  0.286262E+00
     1        776     1     3  0.194541E+03  0.194541E+03  0.429393E+00
     1        777     1     3  0.195185E+03  0.195185E+03  0.644090E+00
     1        778     1     4  0.196151E+03  0.196151E+03  0.966135E+00
     1        779     1U    4  0.196151E+03  0.196151E+03  0.144920E+01
     1        779     2U    5  0.196151E+03  0.196151E+03  0.362301E+00
     1        779     3     4  0.196242E+03  0.196242E+03  0.905752E-01
     1        780     1     4  0.196333E+03  0.196333E+03  0.905752E-01
     1        781     1U    5  0.196333E+03  0.196333E+03  0.135863E+00
     1        781     2     4  0.196367E+03  0.196367E+03  0.339657E-01
     1        782     1     4  0.196401E+03  0.196401E+03  0.339657E-01
     1        783     1     3  0.196451E+03  0.196451E+03  0.509485E-01
     1        784     1     5  0.196528E+03  0.196528E+03  0.764228E-01
     1        785     1     6  0.196604E+03  0.196604E+03  0.764228E-01
     1        786     1     4  0.196681E+03  0.196681E+03  0.764228E-01
     1        787     1     4  0.196757E+03  0.196757E+03  0.764228E-01
     1        788     1     6  0.196872E+03  0.196872E+03  0.114634E+00
     1        789     1     4  0.196986E+03  0.196986E+03  0.114634E+00
     1        790     1     4  0.197101E+03  0.197101E+03  0.114634E+00
     1        791     1     4  0.197273E+03  0.197273E+03  0.171951E+00
     1        792     1     3  0.197531E+03  0.197531E+03  0.257927E+00
     1        793     1     3  0.197918E+03  0.197918E+03  0.386891E+00
     1        794     1     3  0.198498E+03  0.198498E+03  0.580336E+00
     1        795     1     4  0.199369E+03  0.199369E+03  0.870504E+00
     1        796     1U    7  0.199369E+03  0.199369E+03  0.130576E+01
     1        796     2     4  0.199695E+03  0.199695E+03  0.326439E+00
     1        797     1     4  0.200022E+03  0.200022E+03  0.326439E+00
     1        798     1     4  0.200511E+03  0.200511E+03  0.489658E+00
     1        799     1U    4  0.200511E+03  0.200511E+03  0.734487E+00
     1        799     2     4  0.200695E+03  0.200695E+03  0.183622E+00
     1        800     1     3  0.200878E+03  0.200878E+03  0.183622E+00
     1        801     1U    5  0.200878E+03  0.200878E+03  0.275433E+00
     1        801     2     3  0.200947E+03  0.200947E+03  0.688582E-01
     1        802     1     4  0.201016E+03  0.201016E+03  0.688582E-01
     1        803     1U    6  0.201016E+03  0.201016E+03  0.103287E+00
     1        803     2     4  0.201042E+03  0.201042E+03  0.258218E-01
     1        804     1     5  0.201068E+03  0.201068E+03  0.258218E-01
     1        805     1     4  0.201094E+03  0.201094E+03  0.258218E-01
     1        806     1     4  0.201119E+03  0.201119E+03  0.258218E-01
     1        807     1     4  0.201158E+03  0.201158E+03  0.387327E-01
     1        808     1     4  0.201216E+03  0.201216E+03  0.580991E-01
     1        809     1     3  0.201303E+03  0.201303E+03  0.871487E-01
     1        810     1U    5  0.201303E+03  0.201303E+03  0.130723E+00
     1        810     2     4  0.201336E+03  0.201336E+03  0.326807E-01
     1        811     1     4  0.201369E+03  0.201369E+03  0.326807E-01
     1        812     1     4  0.201418E+03  0.201418E+03  0.490211E-01
     1        813     1     4  0.201491E+03  0.201491E+03  0.735317E-01
     1        814     1     4  0.201602E+03  0.201602E+03  0.110298E+00
     1        815     1     4  0.201767E+03  0.201767E+03  0.165446E+00
     1        816     1     3  0.202015E+03  0.202015E+03  0.248169E+00
     1        817     1     3  0.202388E+03  0.202388E+03  0.372254E+00
     1        818     1     3  0.202946E+03  0.202946E+03  0.558381E+00
     1        819     1     3  0.203783E+03  0.203783E+03  0.837572E+00
     1        820     1U    4  0.203783E+03  0.203783E+03  0.125636E+01
     1        820     2     4  0.204098E+03  0.204098E+03  0.314089E+00
     1        821     1     4  0.204412E+03  0.204412E+03  0.314089E+00
     1        822     1     4  0.204883E+03  0.204883E+03  0.471134E+00
     1        823     1U    4  0.204883E+03  0.204883E+03  0.706701E+00
     1        823     2     4  0.205059E+03  0.205059E+03  0.176675E+00
     1        824     1     4  0.205236E+03  0.205236E+03  0.176675E+00
     1        825     1     4  0.205501E+03  0.205501E+03  0.265013E+00
     1        826     1U    4  0.205501E+03  0.205501E+03  0.397519E+00
     1        826     2     4  0.205601E+03  0.205601E+03  0.993799E-01
     1        827     1     3  0.205700E+03  0.205700E+03  0.993799E-01
     1        828     1     4  0.205849E+03  0.205849E+03  0.149070E+00
     1        829     1     4  0.206073E+03  0.206073E+03  0.223605E+00
     1        830     1     4  0.206408E+03  0.206408E+03  0.335407E+00
     1        831     1     4  0.206911E+03  0.206911E+03  0.503111E+00
     1        832     1     4  0.207666E+03  0.207666E+03  0.754666E+00
     1        833     1U    5  0.207666E+03  0.207666E+03  0.113200E+01
     1        833     2     6  0.207949E+03  0.207949E+03  0.283000E+00
     1        834     1     5  0.208232E+03  0.208232E+03  0.283000E+00
     1        835     1U    5  0.208232E+03  0.208232E+03  0.283000E+00
     1        835     2     4  0.208303E+03  0.208303E+03  0.707499E-01
     1        836     1     8  0.208373E+03  0.208373E+03  0.707499E-01
     1        837     1     4  0.208444E+03  0.208444E+03  0.707499E-01
     1        838     1     4  0.208515E+03  0.208515E+03  0.707499E-01
     1        839     1     4  0.208621E+03  0.208621E+03  0.106125E+00
     1        840     1     4  0.208780E+03  0.208780E+03  0.159187E+00
     1        841     1     5  0.209019E+03  0.209019E+03  0.238781E+00
     1        842     1U    4  0.209019E+03  0.209019E+03  0.238781E+00
     1        842     2     4  0.209079E+03  0.209079E+03  0.596952E-01
     1        843     1     4  0.209138E+03  0.209138E+03  0.596952E-01
     1        844     1     4  0.209228E+03  0.209228E+03  0.895429E-01
     1        845     1     5  0.209362E+03  0.209362E+03  0.134314E+00
     1        846     1     4  0.209496E+03  0.209496E+03  0.134314E+00
     1        847     1     4  0.209631E+03  0.209631E+03  0.134314E+00
     1        848     1     4  0.209832E+03  0.209832E+03  0.201471E+00
     1        849     1     4  0.210134E+03  0.210134E+03  0.302207E+00
     1        850     1     4  0.210588E+03  0.210588E+03  0.453311E+00
     1        851     1U    5  0.210588E+03  0.210588E+03  0.679966E+00
     1        851     2     3  0.210758E+03  0.210758E+03  0.169992E+00
     1        852     1     4  0.210928E+03  0.210928E+03  0.169992E+00
     1        853     1     4  0.211183E+03  0.211183E+03  0.254987E+00
     1        854     1     5  0.211565E+03  0.211565E+03  0.382481E+00
     1        855     1     4  0.211948E+03  0.211948E+03  0.382481E+00
     1        856     1     4  0.212330E+03  0.212330E+03  0.382481E+00
     1        857     1     4  0.212904E+03  0.212904E+03  0.573721E+00
     1        858     1     4  0.213764E+03  0.213764E+03  0.860582E+00
     1        859     1U    4  0.213764E+03  0.213764E+03  0.129087E+01
     1        859     2     4  0.214087E+03  0.214087E+03  0.322718E+00
     1        860     1     4  0.214410E+03  0.214410E+03  0.322718E+00
     1        861     1     4  0.214894E+03  0.214894E+03  0.484077E+00
     1        862     1     4  0.215620E+03  0.215620E+03  0.726116E+00
     1        863     1     4  0.216709E+03  0.216709E+03  0.108917E+01
     1        864     1     6  0.218343E+03  0.218343E+03  0.163376E+01
     1        865     1     4  0.219977E+03  0.219977E+03  0.163376E+01
     1        866     1     4  0.221611E+03  0.221611E+03  0.163376E+01
     1        867     1U    4  0.221611E+03  0.221611E+03  0.245064E+01
     1        867     2     4  0.222223E+03  0.222223E+03  0.612661E+00
     1        868     1U    5  0.222223E+03  0.222223E+03  0.612661E+00
     1        868     2     4  0.222376E+03  0.222376E+03  0.153165E+00
     1        869     1     4  0.222530E+03  0.222530E+03  0.153165E+00
     1        870     1     4  0.222759E+03  0.222759E+03  0.229748E+00
     1        871     1     4  0.223104E+03  0.223104E+03  0.344622E+00
     1        872     1     4  0.223621E+03  0.223621E+03  0.516932E+00
     1        873     1U    5  0.223621E+03  0.223621E+03  0.775398E+00
     1        873     2     6  0.223815E+03  0.223815E+03  0.193850E+00
     1        874     1     3  0.224009E+03  0.224009E+03  0.193850E+00
     1        875     1     4  0.224202E+03  0.224202E+03  0.193850E+00
     1        876     1     4  0.224493E+03  0.224493E+03  0.290774E+00
     1        877     1U    5  0.224493E+03  0.224493E+03  0.436162E+00
     1        877     2     4  0.224602E+03  0.224602E+03  0.109040E+00
     1        878     1     4  0.224711E+03  0.224711E+03  0.109040E+00
     1        879     1     4  0.224875E+03  0.224875E+03  0.163561E+00
     1        880     1     3  0.225120E+03  0.225120E+03  0.245341E+00
     1        881     1     3  0.225488E+03  0.225488E+03  0.368011E+00
     1        882     1     3  0.226040E+03  0.226040E+03  0.552017E+00
     1        883     1U    5  0.226040E+03  0.226040E+03  0.828026E+00
     1        883     2     3  0.226247E+03  0.226247E+03  0.207006E+00
     1        884     1     3  0.226454E+03  0.226454E+03  0.207006E+00
     1        885     1     3  0.226765E+03  0.226765E+03  0.310510E+00
     1        886     1     3  0.227230E+03  0.227230E+03  0.465764E+00
     1        887     1     3  0.227929E+03  0.227929E+03  0.698647E+00
     1        888     1     6  0.228977E+03  0.228977E+03  0.104797E+01
     1        889     1     4  0.230025E+03  0.230025E+03  0.104797E+01
     1        890     1U    4  0.230025E+03  0.230025E+03  0.104797E+01
     1        890     2     4  0.230287E+03  0.230287E+03  0.261992E+00
     1        891     1     7  0.230549E+03  0.230549E+03  0.261992E+00
     1        892     1     4  0.230811E+03  0.230811E+03  0.261992E+00
     1        893     1     7  0.231073E+03  0.231073E+03  0.261992E+00
     1        894     1U    4  0.231073E+03  0.231073E+03  0.261992E+00
     1        894     2     4  0.231139E+03  0.231139E+03  0.654981E-01
     1        895     1     4  0.231204E+03  0.231204E+03  0.654981E-01
     1        896     1     4  0.231302E+03  0.231302E+03  0.982472E-01
     1        897     1     3  0.231450E+03  0.231450E+03  0.147371E+00
     1        898     1     3  0.231671E+03  0.231671E+03  0.221056E+00
     1        899     1     3  0.232002E+03  0.232002E+03  0.331584E+00
     1        900     1     3  0.232500E+03  0.232500E+03  0.497376E+00
     1        901     1     4  0.233246E+03  0.233246E+03  0.746065E+00
     1        902     1U    5  0.233246E+03  0.233246E+03  0.111910E+01
     1        902     2     3  0.233525E+03  0.233525E+03  0.279774E+00
     1        903     1     3  0.233805E+03  0.233805E+03  0.279774E+00
     1        904     1     6  0.234225E+03  0.234225E+03  0.419661E+00
     1        905     1     4  0.234645E+03  0.234645E+03  0.419661E+00
     1        906     1     3  0.235064E+03  0.235064E+03  0.419661E+00
     1        907     1     4  0.235694E+03  0.235694E+03  0.629492E+00
     1        908     1     4  0.236638E+03  0.236638E+03  0.944238E+00
     1        909     1U    5  0.236638E+03  0.236638E+03  0.141636E+01
     1        909     2U    4  0.236638E+03  0.236638E+03  0.354089E+00
     1        909     3     4  0.236727E+03  0.236727E+03  0.885223E-01
     1        910     1     4  0.236815E+03  0.236815E+03  0.885223E-01
     1        911     1     4  0.236948E+03  0.236948E+03  0.132783E+00
     1        912     1     4  0.237147E+03  0.237147E+03  0.199175E+00
     1        913     1     4  0.237446E+03  0.237446E+03  0.298763E+00
     1        914     1     4  0.237894E+03  0.237894E+03  0.448144E+00
     1        915     1     4  0.238566E+03  0.238566E+03  0.672216E+00
     1        916     1U    4  0.238566E+03  0.238566E+03  0.100832E+01
     1        916     2     4  0.238818E+03  0.238818E+03  0.252081E+00
     1        917     1     6  0.239070E+03  0.239070E+03  0.252081E+00
     1        918     1U    5  0.239070E+03  0.239070E+03  0.252081E+00
     1        918     2U    4  0.239070E+03  0.239070E+03  0.630203E-01
     1        918     3     2  0.239086E+03  0.239086E+03  0.157551E-01
     1        919     1     2  0.239102E+03  0.239102E+03  0.157551E-01
     1        920     1     4  0.239125E+03  0.239125E+03  0.236326E-01
     1        921     1     4  0.239161E+03  0.239161E+03  0.354489E-01
     1        922     1     6  0.239214E+03  0.239214E+03  0.531734E-01
     1        923     1     4  0.239267E+03  0.239267E+03  0.531734E-01
     1        924     1     4  0.239320E+03  0.239320E+03  0.531734E-01
     1        925     1     5  0.239400E+03  0.239400E+03  0.797600E-01
     1        926     1     4  0.239480E+03  0.239480E+03  0.797600E-01
     1        927     1     4  0.239560E+03  0.239560E+03  0.797600E-01
     1        928     1     4  0.239679E+03  0.239679E+03  0.119640E+00
     1        929     1     4  0.239859E+03  0.239859E+03  0.179460E+00
     1        930     1     6  0.240128E+03  0.240128E+03  0.269190E+00
     1        931     1     3  0.240397E+03  0.240397E+03  0.269190E+00
     1        932     1     4  0.240666E+03  0.240666E+03  0.269190E+00
     1        933     1     3  0.241070E+03  0.241070E+03  0.403785E+00
     1        934     1U    5  0.241070E+03  0.241070E+03  0.605678E+00
     1        934     2     4  0.241222E+03  0.241222E+03  0.151419E+00
     1        935     1     4  0.241373E+03  0.241373E+03  0.151419E+00
     1        936     1     3  0.241600E+03  0.241600E+03  0.227129E+00
     1        937     1     3  0.241941E+03  0.241941E+03  0.340694E+00
     1        938     1     3  0.242452E+03  0.242452E+03  0.511041E+00
     1        939     1     3  0.243218E+03  0.243218E+03  0.766561E+00
     1        940     1     4  0.244368E+03  0.244368E+03  0.114984E+01
     1        941     1     4  0.246093E+03  0.246093E+03  0.172476E+01
     1        942     1     4  0.248680E+03  0.248680E+03  0.258714E+01
     1        943     1     4  0.250000E+03  0.250000E+03  0.131987E+01
