SUMMARY OF JOB INFORMATION
  STEP      INC     ATT  ITRS     TOT TIME     STEP TIME      INC TIME
     1          1     1     3  0.100000E+00  0.100000E+00  0.100000E+00
     1          2     1     5  0.200000E+00  0.200000E+00  0.100000E+00
     1          3     1     5  0.300000E+00  0.300000E+00  0.100000E+00
     1          4     1     5  0.400000E+00  0.400000E+00  0.100000E+00
     1          5     1     5  0.500000E+00  0.500000E+00  0.100000E+00
     1          6     1     5  0.600000E+00  0.600000E+00  0.100000E+00
     1          7     1     5  0.700000E+00  0.700000E+00  0.100000E+00
     1          8     1     5  0.800000E+00  0.800000E+00  0.100000E+00
     1          9     1     4  0.900000E+00  0.900000E+00  0.100000E+00
     1         10     1     3  0.100000E+01  0.100000E+01  0.100000E+00
     1         11     1     5  0.115000E+01  0.115000E+01  0.150000E+00
     1         12     1     5  0.130000E+01  0.130000E+01  0.150000E+00
     1         13     1     5  0.145000E+01  0.145000E+01  0.150000E+00
     1         14     1     5  0.160000E+01  0.160000E+01  0.150000E+00
     1         15     1     5  0.175000E+01  0.175000E+01  0.150000E+00
     1         16     1     5  0.190000E+01  0.190000E+01  0.150000E+00
     1         17     1     3  0.205000E+01  0.205000E+01  0.150000E+00
     1         18     1     5  0.220000E+01  0.220000E+01  0.150000E+00
     1         19     1     5  0.235000E+01  0.235000E+01  0.150000E+00
     1         20     1     5  0.250000E+01  0.250000E+01  0.150000E+00
     1         21     1     5  0.265000E+01  0.265000E+01  0.150000E+00
     1         22     1     5  0.280000E+01  0.280000E+01  0.150000E+00
     1         23     1     4  0.295000E+01  0.295000E+01  0.150000E+00
     1         24     1     4  0.310000E+01  0.310000E+01  0.150000E+00
     1         25     1     5  0.332500E+01  0.332500E+01  0.225000E+00
     1         26     1     5  0.355000E+01  0.355000E+01  0.225000E+00
     1         27     1     5  0.377500E+01  0.377500E+01  0.225000E+00
     1         28     1     5  0.400000E+01  0.400000E+01  0.225000E+00
     1         29     1     5  0.422500E+01  0.422500E+01  0.225000E+00
     1         30     1     5  0.445000E+01  0.445000E+01  0.225000E+00
     1         31     1     5  0.467500E+01  0.467500E+01  0.225000E+00
     1         32     1     5  0.490000E+01  0.490000E+01  0.225000E+00
     1         33     1     4  0.512500E+01  0.512500E+01  0.225000E+00
     1         34     1     5  0.535000E+01  0.535000E+01  0.225000E+00
     1         35     1     5  0.557500E+01  0.557500E+01  0.225000E+00
     1         36     1     5  0.580000E+01  0.580000E+01  0.225000E+00
     1         37     1     5  0.602500E+01  0.602500E+01  0.225000E+00
     1         38     1     5  0.625000E+01  0.625000E+01  0.225000E+00
     1         39     1     5  0.647500E+01  0.647500E+01  0.225000E+00
     1         40     1     5  0.670000E+01  0.670000E+01  0.225000E+00
     1         41     1     5  0.692500E+01  0.692500E+01  0.225000E+00
     1         42     1     4  0.715000E+01  0.715000E+01  0.225000E+00
     1         43     1     5  0.737500E+01  0.737500E+01  0.225000E+00
     1         44     1     5  0.760000E+01  0.760000E+01  0.225000E+00
     1         45     1     5  0.782500E+01  0.782500E+01  0.225000E+00
     1         46     1     5  0.805000E+01  0.805000E+01  0.225000E+00
     1         47     1     5  0.827500E+01  0.827500E+01  0.225000E+00
     1         48     1     5  0.850000E+01  0.850000E+01  0.225000E+00
     1         49     1     5  0.872500E+01  0.872500E+01  0.225000E+00
     1         50     1     5  0.895000E+01  0.895000E+01  0.225000E+00
     1         51     1     3  0.917500E+01  0.917500E+01  0.225000E+00
     1         52     1     5  0.940000E+01  0.940000E+01  0.225000E+00
     1         53     1     5  0.962500E+01  0.962500E+01  0.225000E+00
     1         54     1     5  0.985000E+01  0.985000E+01  0.225000E+00
     1         55     1     5  0.100750E+02  0.100750E+02  0.225000E+00
     1         56     1     5  0.103000E+02  0.103000E+02  0.225000E+00
     1         57     1     5  0.105250E+02  0.105250E+02  0.225000E+00
     1         58     1     5  0.107500E+02  0.107500E+02  0.225000E+00
     1         59     1     5  0.109750E+02  0.109750E+02  0.225000E+00
     1         60     1     3  0.112000E+02  0.112000E+02  0.225000E+00
     1         61     1     5  0.114250E+02  0.114250E+02  0.225000E+00
     1         62     1     5  0.116500E+02  0.116500E+02  0.225000E+00
     1         63     1     5  0.118750E+02  0.118750E+02  0.225000E+00
     1         64     1     5  0.121000E+02  0.121000E+02  0.225000E+00
     1         65     1     5  0.123250E+02  0.123250E+02  0.225000E+00
     1         66     1     5  0.125500E+02  0.125500E+02  0.225000E+00
     1         67     1     5  0.127750E+02  0.127750E+02  0.225000E+00
     1         68     1     5  0.130000E+02  0.130000E+02  0.225000E+00
     1         69     1     3  0.132250E+02  0.132250E+02  0.225000E+00
     1         70     1     5  0.134500E+02  0.134500E+02  0.225000E+00
     1         71     1     5  0.136750E+02  0.136750E+02  0.225000E+00
     1         72     1     5  0.139000E+02  0.139000E+02  0.225000E+00
     1         73     1     5  0.141250E+02  0.141250E+02  0.225000E+00
     1         74     1     4  0.143500E+02  0.143500E+02  0.225000E+00
     1         75     1     5  0.145750E+02  0.145750E+02  0.225000E+00
     1         76     1     5  0.148000E+02  0.148000E+02  0.225000E+00
     1         77     1     5  0.150250E+02  0.150250E+02  0.225000E+00
     1         78     1     4  0.152500E+02  0.152500E+02  0.225000E+00
     1         79     1     5  0.154750E+02  0.154750E+02  0.225000E+00
     1         80     1     5  0.157000E+02  0.157000E+02  0.225000E+00
     1         81     1     5  0.159250E+02  0.159250E+02  0.225000E+00
     1         82     1     5  0.161500E+02  0.161500E+02  0.225000E+00
     1         83     1     4  0.163750E+02  0.163750E+02  0.225000E+00
     1         84     1     5  0.166000E+02  0.166000E+02  0.225000E+00
     1         85     1     5  0.168250E+02  0.168250E+02  0.225000E+00
     1         86     1     5  0.170500E+02  0.170500E+02  0.225000E+00
     1         87     1     4  0.172750E+02  0.172750E+02  0.225000E+00
     1         88     1     5  0.175000E+02  0.175000E+02  0.225000E+00
     1         89     1     5  0.177250E+02  0.177250E+02  0.225000E+00
     1         90     1     5  0.179500E+02  0.179500E+02  0.225000E+00
     1         91     1     5  0.181750E+02  0.181750E+02  0.225000E+00
     1         92     1     4  0.184000E+02  0.184000E+02  0.225000E+00
     1         93     1     5  0.186250E+02  0.186250E+02  0.225000E+00
     1         94     1     5  0.188500E+02  0.188500E+02  0.225000E+00
     1         95     1     5  0.190750E+02  0.190750E+02  0.225000E+00
     1         96     1     4  0.193000E+02  0.193000E+02  0.225000E+00
     1         97     1     5  0.195250E+02  0.195250E+02  0.225000E+00
     1         98     1     5  0.197500E+02  0.197500E+02  0.225000E+00
     1         99     1     5  0.199750E+02  0.199750E+02  0.225000E+00
     1        100     1     5  0.202000E+02  0.202000E+02  0.225000E+00
     1        101     1     4  0.204250E+02  0.204250E+02  0.225000E+00
     1        102     1     5  0.206500E+02  0.206500E+02  0.225000E+00
     1        103     1     5  0.208750E+02  0.208750E+02  0.225000E+00
     1        104     1     5  0.211000E+02  0.211000E+02  0.225000E+00
     1        105     1     4  0.213250E+02  0.213250E+02  0.225000E+00
     1        106     1     5  0.215500E+02  0.215500E+02  0.225000E+00
     1        107     1     5  0.217750E+02  0.217750E+02  0.225000E+00
     1        108     1     5  0.220000E+02  0.220000E+02  0.225000E+00
     1        109     1     5  0.222250E+02  0.222250E+02  0.225000E+00
     1        110     1     4  0.224500E+02  0.224500E+02  0.225000E+00
     1        111     1     5  0.226750E+02  0.226750E+02  0.225000E+00
     1        112     1     5  0.229000E+02  0.229000E+02  0.225000E+00
     1        113     1     5  0.231250E+02  0.231250E+02  0.225000E+00
     1        114     1     5  0.233500E+02  0.233500E+02  0.225000E+00
     1        115     1     5  0.235750E+02  0.235750E+02  0.225000E+00
     1        116     1     5  0.238000E+02  0.238000E+02  0.225000E+00
     1        117     1     5  0.240250E+02  0.240250E+02  0.225000E+00
     1        118     1     5  0.242500E+02  0.242500E+02  0.225000E+00
     1        119     1     4  0.244750E+02  0.244750E+02  0.225000E+00
     1        120     1     5  0.247000E+02  0.247000E+02  0.225000E+00
     1        121     1     5  0.249250E+02  0.249250E+02  0.225000E+00
     1        122     1     5  0.251500E+02  0.251500E+02  0.225000E+00
     1        123     1     5  0.253750E+02  0.253750E+02  0.225000E+00
     1        124     1     5  0.256000E+02  0.256000E+02  0.225000E+00
     1        125     1     5  0.258250E+02  0.258250E+02  0.225000E+00
     1        126     1     5  0.260500E+02  0.260500E+02  0.225000E+00
     1        127     1     5  0.262750E+02  0.262750E+02  0.225000E+00
     1        128     1     4  0.265000E+02  0.265000E+02  0.225000E+00
     1        129     1     5  0.267250E+02  0.267250E+02  0.225000E+00
     1        130     1     5  0.269500E+02  0.269500E+02  0.225000E+00
     1        131     1     5  0.271750E+02  0.271750E+02  0.225000E+00
     1        132     1     5  0.274000E+02  0.274000E+02  0.225000E+00
     1        133     1     5  0.276250E+02  0.276250E+02  0.225000E+00
     1        134     1     5  0.278500E+02  0.278500E+02  0.225000E+00
     1        135     1     5  0.280750E+02  0.280750E+02  0.225000E+00
     1        136     1     5  0.283000E+02  0.283000E+02  0.225000E+00
     1        137     1     3  0.285250E+02  0.285250E+02  0.225000E+00
     1        138     1     5  0.287500E+02  0.287500E+02  0.225000E+00
     1        139     1     5  0.289750E+02  0.289750E+02  0.225000E+00
     1        140     1     5  0.292000E+02  0.292000E+02  0.225000E+00
     1        141     1     5  0.294250E+02  0.294250E+02  0.225000E+00
     1        142     1     5  0.296500E+02  0.296500E+02  0.225000E+00
     1        143     1     5  0.298750E+02  0.298750E+02  0.225000E+00
     1        144     1     5  0.300000E+02  0.300000E+02  0.125000E+00
