SUMMARY OF JOB INFORMATION
  STEP      INC     ATT  ITRS     TOT TIME     STEP TIME      INC TIME
     1          1     1     3  0.100000E+00  0.100000E+00  0.100000E+00
     1          2     1     5  0.200000E+00  0.200000E+00  0.100000E+00
     1          3     1     5  0.300000E+00  0.300000E+00  0.100000E+00
     1          4     1     5  0.400000E+00  0.400000E+00  0.100000E+00
     1          5     1     5  0.500000E+00  0.500000E+00  0.100000E+00
     1          6     1     5  0.600000E+00  0.600000E+00  0.100000E+00
     1          7     1     5  0.700000E+00  0.700000E+00  0.100000E+00
     1          8     1     5  0.800000E+00  0.800000E+00  0.100000E+00
     1          9     1     5  0.900000E+00  0.900000E+00  0.100000E+00
     1         10     1     5  0.100000E+01  0.100000E+01  0.100000E+00
     1         11     1     4  0.110000E+01  0.110000E+01  0.100000E+00
     1         12     1     4  0.120000E+01  0.120000E+01  0.100000E+00
     1         13     1     4  0.135000E+01  0.135000E+01  0.150000E+00
     1         14     1     5  0.157500E+01  0.157500E+01  0.225000E+00
     1         15     1     5  0.180000E+01  0.180000E+01  0.225000E+00
     1         16     1     5  0.202500E+01  0.202500E+01  0.225000E+00
     1         17     1     5  0.225000E+01  0.225000E+01  0.225000E+00
     1         18     1     5  0.247500E+01  0.247500E+01  0.225000E+00
     1         19     1     5  0.270000E+01  0.270000E+01  0.225000E+00
     1         20     1     5  0.292500E+01  0.292500E+01  0.225000E+00
     1         21     1     5  0.315000E+01  0.315000E+01  0.225000E+00
     1         22     1     5  0.337500E+01  0.337500E+01  0.225000E+00
     1         23     1     5  0.360000E+01  0.360000E+01  0.225000E+00
     1         24     1     3  0.382500E+01  0.382500E+01  0.225000E+00
     1         25     1     5  0.405000E+01  0.405000E+01  0.225000E+00
     1         26     1     5  0.427500E+01  0.427500E+01  0.225000E+00
     1         27     1     5  0.450000E+01  0.450000E+01  0.225000E+00
     1         28     1     5  0.472500E+01  0.472500E+01  0.225000E+00
     1         29     1     5  0.495000E+01  0.495000E+01  0.225000E+00
     1         30     1     4  0.517500E+01  0.517500E+01  0.225000E+00
     1         31     1     5  0.540000E+01  0.540000E+01  0.225000E+00
     1         32     1     5  0.562500E+01  0.562500E+01  0.225000E+00
     1         33     1     5  0.585000E+01  0.585000E+01  0.225000E+00
     1         34     1     5  0.607500E+01  0.607500E+01  0.225000E+00
     1         35     1     4  0.630000E+01  0.630000E+01  0.225000E+00
     1         36     1     5  0.652500E+01  0.652500E+01  0.225000E+00
     1         37     1     5  0.675000E+01  0.675000E+01  0.225000E+00
     1         38     1     5  0.697500E+01  0.697500E+01  0.225000E+00
     1         39     1     5  0.720000E+01  0.720000E+01  0.225000E+00
     1         40     1     5  0.742500E+01  0.742500E+01  0.225000E+00
     1         41     1     3  0.765000E+01  0.765000E+01  0.225000E+00
     1         42     1     5  0.787500E+01  0.787500E+01  0.225000E+00
     1         43     1     5  0.810000E+01  0.810000E+01  0.225000E+00
     1         44     1     5  0.832500E+01  0.832500E+01  0.225000E+00
     1         45     1     5  0.855000E+01  0.855000E+01  0.225000E+00
     1         46     1     5  0.877500E+01  0.877500E+01  0.225000E+00
     1         47     1     4  0.900000E+01  0.900000E+01  0.225000E+00
     1         48     1     5  0.922500E+01  0.922500E+01  0.225000E+00
     1         49     1     5  0.945000E+01  0.945000E+01  0.225000E+00
     1         50     1     5  0.967500E+01  0.967500E+01  0.225000E+00
     1         51     1     5  0.990000E+01  0.990000E+01  0.225000E+00
     1         52     1     5  0.101250E+02  0.101250E+02  0.225000E+00
     1         53     1     5  0.103500E+02  0.103500E+02  0.225000E+00
     1         54     1     5  0.105750E+02  0.105750E+02  0.225000E+00
     1         55     1     5  0.108000E+02  0.108000E+02  0.225000E+00
     1         56     1     5  0.110250E+02  0.110250E+02  0.225000E+00
     1         57     1     5  0.112500E+02  0.112500E+02  0.225000E+00
     1         58     1     4  0.114750E+02  0.114750E+02  0.225000E+00
     1         59     1     5  0.117000E+02  0.117000E+02  0.225000E+00
     1         60     1     5  0.119250E+02  0.119250E+02  0.225000E+00
     1         61     1     5  0.121500E+02  0.121500E+02  0.225000E+00
     1         62     1     5  0.123750E+02  0.123750E+02  0.225000E+00
     1         63     1     5  0.126000E+02  0.126000E+02  0.225000E+00
     1         64     1     3  0.128250E+02  0.128250E+02  0.225000E+00
     1         65     1     5  0.130500E+02  0.130500E+02  0.225000E+00
     1         66     1     5  0.132750E+02  0.132750E+02  0.225000E+00
     1         67     1     5  0.135000E+02  0.135000E+02  0.225000E+00
     1         68     1     5  0.137250E+02  0.137250E+02  0.225000E+00
     1         69     1     5  0.139500E+02  0.139500E+02  0.225000E+00
     1         70     1     4  0.141750E+02  0.141750E+02  0.225000E+00
     1         71     1     5  0.144000E+02  0.144000E+02  0.225000E+00
     1         72     1     5  0.146250E+02  0.146250E+02  0.225000E+00
     1         73     1     5  0.148500E+02  0.148500E+02  0.225000E+00
     1         74     1     5  0.150750E+02  0.150750E+02  0.225000E+00
     1         75     1     4  0.153000E+02  0.153000E+02  0.225000E+00
     1         76     1     5  0.155250E+02  0.155250E+02  0.225000E+00
     1         77     1     5  0.157500E+02  0.157500E+02  0.225000E+00
     1         78     1     5  0.159750E+02  0.159750E+02  0.225000E+00
     1         79     1     5  0.162000E+02  0.162000E+02  0.225000E+00
     1         80     1     5  0.164250E+02  0.164250E+02  0.225000E+00
     1         81     1     3  0.166500E+02  0.166500E+02  0.225000E+00
     1         82     1     5  0.168750E+02  0.168750E+02  0.225000E+00
     1         83     1     5  0.171000E+02  0.171000E+02  0.225000E+00
     1         84     1     5  0.173250E+02  0.173250E+02  0.225000E+00
     1         85     1     5  0.175500E+02  0.175500E+02  0.225000E+00
     1         86     1     5  0.177750E+02  0.177750E+02  0.225000E+00
     1         87     1     4  0.180000E+02  0.180000E+02  0.225000E+00
     1         88     1     5  0.182250E+02  0.182250E+02  0.225000E+00
     1         89     1     5  0.184500E+02  0.184500E+02  0.225000E+00
     1         90     1     5  0.186750E+02  0.186750E+02  0.225000E+00
     1         91     1     5  0.189000E+02  0.189000E+02  0.225000E+00
     1         92     1     4  0.191250E+02  0.191250E+02  0.225000E+00
     1         93     1     5  0.193500E+02  0.193500E+02  0.225000E+00
     1         94     1     5  0.195750E+02  0.195750E+02  0.225000E+00
     1         95     1     5  0.198000E+02  0.198000E+02  0.225000E+00
     1         96     1     5  0.200250E+02  0.200250E+02  0.225000E+00
     1         97     1     5  0.202500E+02  0.202500E+02  0.225000E+00
     1         98     1     3  0.204750E+02  0.204750E+02  0.225000E+00
     1         99     1     5  0.207000E+02  0.207000E+02  0.225000E+00
     1        100     1     5  0.209250E+02  0.209250E+02  0.225000E+00
     1        101     1     5  0.211500E+02  0.211500E+02  0.225000E+00
     1        102     1     5  0.213750E+02  0.213750E+02  0.225000E+00
     1        103     1     5  0.216000E+02  0.216000E+02  0.225000E+00
     1        104     1     4  0.218250E+02  0.218250E+02  0.225000E+00
     1        105     1     5  0.220500E+02  0.220500E+02  0.225000E+00
     1        106     1     5  0.222750E+02  0.222750E+02  0.225000E+00
     1        107     1     5  0.225000E+02  0.225000E+02  0.225000E+00
     1        108     1     5  0.227250E+02  0.227250E+02  0.225000E+00
     1        109     1     4  0.229500E+02  0.229500E+02  0.225000E+00
     1        110     1     5  0.231750E+02  0.231750E+02  0.225000E+00
     1        111     1     5  0.234000E+02  0.234000E+02  0.225000E+00
     1        112     1     5  0.236250E+02  0.236250E+02  0.225000E+00
     1        113     1     5  0.238500E+02  0.238500E+02  0.225000E+00
     1        114     1     5  0.240750E+02  0.240750E+02  0.225000E+00
     1        115     1     3  0.243000E+02  0.243000E+02  0.225000E+00
     1        116     1     5  0.245250E+02  0.245250E+02  0.225000E+00
     1        117     1     5  0.247500E+02  0.247500E+02  0.225000E+00
     1        118     1     5  0.249750E+02  0.249750E+02  0.225000E+00
     1        119     1     5  0.252000E+02  0.252000E+02  0.225000E+00
     1        120     1     5  0.254250E+02  0.254250E+02  0.225000E+00
     1        121     1     4  0.256500E+02  0.256500E+02  0.225000E+00
     1        122     1     5  0.258750E+02  0.258750E+02  0.225000E+00
     1        123     1     5  0.261000E+02  0.261000E+02  0.225000E+00
     1        124     1     5  0.263250E+02  0.263250E+02  0.225000E+00
     1        125     1     5  0.265500E+02  0.265500E+02  0.225000E+00
     1        126     1     4  0.267750E+02  0.267750E+02  0.225000E+00
     1        127     1     5  0.270000E+02  0.270000E+02  0.225000E+00
     1        128     1     5  0.272250E+02  0.272250E+02  0.225000E+00
     1        129     1     5  0.274500E+02  0.274500E+02  0.225000E+00
     1        130     1     5  0.276750E+02  0.276750E+02  0.225000E+00
     1        131     1     5  0.279000E+02  0.279000E+02  0.225000E+00
     1        132     1     4  0.281250E+02  0.281250E+02  0.225000E+00
     1        133     1     5  0.283500E+02  0.283500E+02  0.225000E+00
     1        134     1     5  0.285750E+02  0.285750E+02  0.225000E+00
     1        135     1     5  0.288000E+02  0.288000E+02  0.225000E+00
     1        136     1     5  0.290250E+02  0.290250E+02  0.225000E+00
     1        137     1     5  0.292500E+02  0.292500E+02  0.225000E+00
     1        138     1     3  0.294750E+02  0.294750E+02  0.225000E+00
     1        139     1     5  0.297000E+02  0.297000E+02  0.225000E+00
     1        140     1     5  0.299250E+02  0.299250E+02  0.225000E+00
     1        141     1     4  0.300000E+02  0.300000E+02  0.750000E-01
