*INCLUDE, INPUT=Complete_Thin_Cylinder_Mesh.inp


*MATERIAL,NAME=Metal
*CONDUCTIVITY 
16.6
*ELASTIC
152.18E9,0.3
*EXPANSION
1.6900E-5
*SPECIFIC HEAT
5.0200E+02
*DENSITY
8.026E+03

*BOUNDARY
Base,1
*BOUNDARY
Base,2
*BOUNDARY
Base,3
*BOUNDARY
Base,4
*BOUNDARY
Base,5
*BOUNDARY
Base,6

*SHELL SECTION,MATERIAL=Metal,ELSET=Eall
0.000203

*STEP 
*FREQUENCY
10

*NODE FILE 
U  
*EL FILE 
S, E
*NODE PRINT,NSET=TipMarker
U
*END STEP


