SUMMARY OF JOB INFORMATION
  STEP      INC     ATT  ITRS     TOT TIME     STEP TIME      INC TIME
     1          1     1     3  0.100000E+00  0.100000E+00  0.100000E+00
     1          2     1     3  0.200000E+00  0.200000E+00  0.100000E+00
     1          3     1     5  0.350000E+00  0.350000E+00  0.150000E+00
     1          4     1     5  0.500000E+00  0.500000E+00  0.150000E+00
     1          5     1     5  0.650000E+00  0.650000E+00  0.150000E+00
     1          6     1     5  0.800000E+00  0.800000E+00  0.150000E+00
     1          7     1     5  0.950000E+00  0.950000E+00  0.150000E+00
     1          8     1     5  0.110000E+01  0.110000E+01  0.150000E+00
     1          9     1     5  0.125000E+01  0.125000E+01  0.150000E+00
     1         10     1     5  0.140000E+01  0.140000E+01  0.150000E+00
     1         11     1     5  0.155000E+01  0.155000E+01  0.150000E+00
     1         12     1     5  0.170000E+01  0.170000E+01  0.150000E+00
     1         13     1     5  0.185000E+01  0.185000E+01  0.150000E+00
     1         14     1     5  0.200000E+01  0.200000E+01  0.150000E+00
     1         15     1     5  0.215000E+01  0.215000E+01  0.150000E+00
     1         16     1     5  0.230000E+01  0.230000E+01  0.150000E+00
     1         17     1     5  0.245000E+01  0.245000E+01  0.150000E+00
     1         18     1     5  0.260000E+01  0.260000E+01  0.150000E+00
     1         19     1     5  0.275000E+01  0.275000E+01  0.150000E+00
     1         20     1     4  0.290000E+01  0.290000E+01  0.150000E+00
     1         21     1     4  0.305000E+01  0.305000E+01  0.150000E+00
     1         22     1     4  0.327500E+01  0.327500E+01  0.225000E+00
     1         23     1     4  0.361250E+01  0.361250E+01  0.337500E+00
     1         24     1     5  0.411875E+01  0.411875E+01  0.506250E+00
     1         25     1     5  0.462500E+01  0.462500E+01  0.506250E+00
     1         26     1     5  0.513125E+01  0.513125E+01  0.506250E+00
     1         27     1     5  0.563750E+01  0.563750E+01  0.506250E+00
     1         28     1     5  0.614375E+01  0.614375E+01  0.506250E+00
     1         29     1     5  0.665000E+01  0.665000E+01  0.506250E+00
     1         30     1     4  0.715625E+01  0.715625E+01  0.506250E+00
     1         31     1     5  0.766250E+01  0.766250E+01  0.506250E+00
     1         32     1     5  0.816875E+01  0.816875E+01  0.506250E+00
     1         33     1     5  0.867500E+01  0.867500E+01  0.506250E+00
     1         34     1     5  0.918125E+01  0.918125E+01  0.506250E+00
     1         35     1     5  0.968750E+01  0.968750E+01  0.506250E+00
     1         36     1     5  0.101937E+02  0.101937E+02  0.506250E+00
     1         37     1     5  0.107000E+02  0.107000E+02  0.506250E+00
     1         38     1     5  0.112062E+02  0.112062E+02  0.506250E+00
     1         39     1     5  0.117125E+02  0.117125E+02  0.506250E+00
     1         40     1     5  0.122187E+02  0.122187E+02  0.506250E+00
     1         41     1     5  0.127250E+02  0.127250E+02  0.506250E+00
     1         42     1     5  0.132312E+02  0.132312E+02  0.506250E+00
     1         43     1     5  0.137375E+02  0.137375E+02  0.506250E+00
     1         44     1     4  0.142437E+02  0.142437E+02  0.506250E+00
     1         45     1     5  0.147500E+02  0.147500E+02  0.506250E+00
     1         46     1     5  0.152562E+02  0.152562E+02  0.506250E+00
     1         47     1     5  0.157625E+02  0.157625E+02  0.506250E+00
     1         48     1     5  0.162687E+02  0.162687E+02  0.506250E+00
     1         49     1     5  0.167750E+02  0.167750E+02  0.506250E+00
     1         50     1     5  0.172812E+02  0.172812E+02  0.506250E+00
     1         51     1     4  0.177875E+02  0.177875E+02  0.506250E+00
     1         52     1     5  0.182937E+02  0.182937E+02  0.506250E+00
     1         53     1     5  0.188000E+02  0.188000E+02  0.506250E+00
     1         54     1     5  0.193062E+02  0.193062E+02  0.506250E+00
     1         55     1     5  0.198125E+02  0.198125E+02  0.506250E+00
     1         56     1     5  0.203187E+02  0.203187E+02  0.506250E+00
     1         57     1     5  0.208250E+02  0.208250E+02  0.506250E+00
     1         58     1     4  0.213312E+02  0.213312E+02  0.506250E+00
     1         59     1     5  0.218375E+02  0.218375E+02  0.506250E+00
     1         60     1     5  0.223437E+02  0.223437E+02  0.506250E+00
     1         61     1     5  0.228500E+02  0.228500E+02  0.506250E+00
     1         62     1     5  0.233562E+02  0.233562E+02  0.506250E+00
     1         63     1     5  0.238625E+02  0.238625E+02  0.506250E+00
     1         64     1     5  0.243687E+02  0.243687E+02  0.506250E+00
     1         65     1     4  0.248750E+02  0.248750E+02  0.506250E+00
     1         66     1     5  0.253812E+02  0.253812E+02  0.506250E+00
     1         67     1     5  0.258875E+02  0.258875E+02  0.506250E+00
     1         68     1     5  0.263937E+02  0.263937E+02  0.506250E+00
     1         69     1     5  0.269000E+02  0.269000E+02  0.506250E+00
     1         70     1     5  0.274062E+02  0.274062E+02  0.506250E+00
     1         71     1     5  0.279125E+02  0.279125E+02  0.506250E+00
     1         72     1     4  0.284187E+02  0.284187E+02  0.506250E+00
     1         73     1     5  0.289250E+02  0.289250E+02  0.506250E+00
     1         74     1     5  0.294312E+02  0.294312E+02  0.506250E+00
     1         75     1     5  0.299375E+02  0.299375E+02  0.506250E+00
     1         76     1     4  0.300000E+02  0.300000E+02  0.625000E-01
