SUMMARY OF JOB INFORMATION
  STEP      INC     ATT  ITRS     TOT TIME     STEP TIME      INC TIME
     1          1     1     3  0.100000E+00  0.100000E+00  0.100000E+00
     1          2     1     3  0.200000E+00  0.200000E+00  0.100000E+00
     1          3     1     5  0.350000E+00  0.350000E+00  0.150000E+00
     1          4     1     5  0.500000E+00  0.500000E+00  0.150000E+00
     1          5     1     5  0.650000E+00  0.650000E+00  0.150000E+00
     1          6     1     5  0.800000E+00  0.800000E+00  0.150000E+00
     1          7     1     5  0.950000E+00  0.950000E+00  0.150000E+00
     1          8     1     5  0.110000E+01  0.110000E+01  0.150000E+00
     1          9     1     5  0.125000E+01  0.125000E+01  0.150000E+00
     1         10     1     5  0.140000E+01  0.140000E+01  0.150000E+00
     1         11     1     5  0.155000E+01  0.155000E+01  0.150000E+00
     1         12     1     5  0.170000E+01  0.170000E+01  0.150000E+00
     1         13     1     5  0.185000E+01  0.185000E+01  0.150000E+00
     1         14     1     5  0.200000E+01  0.200000E+01  0.150000E+00
     1         15     1     5  0.215000E+01  0.215000E+01  0.150000E+00
     1         16     1     5  0.230000E+01  0.230000E+01  0.150000E+00
     1         17     1     5  0.245000E+01  0.245000E+01  0.150000E+00
     1         18     1     5  0.260000E+01  0.260000E+01  0.150000E+00
     1         19     1     5  0.275000E+01  0.275000E+01  0.150000E+00
     1         20     1     5  0.290000E+01  0.290000E+01  0.150000E+00
     1         21     1     5  0.305000E+01  0.305000E+01  0.150000E+00
     1         22     1     5  0.320000E+01  0.320000E+01  0.150000E+00
     1         23     1     5  0.335000E+01  0.335000E+01  0.150000E+00
     1         24     1     5  0.350000E+01  0.350000E+01  0.150000E+00
     1         25     1     5  0.365000E+01  0.365000E+01  0.150000E+00
     1         26     1     5  0.380000E+01  0.380000E+01  0.150000E+00
     1         27     1     5  0.395000E+01  0.395000E+01  0.150000E+00
     1         28     1     5  0.410000E+01  0.410000E+01  0.150000E+00
     1         29     1     4  0.425000E+01  0.425000E+01  0.150000E+00
     1         30     1     4  0.440000E+01  0.440000E+01  0.150000E+00
     1         31     1     5  0.462500E+01  0.462500E+01  0.225000E+00
     1         32     1     4  0.485000E+01  0.485000E+01  0.225000E+00
     1         33     1     4  0.507500E+01  0.507500E+01  0.225000E+00
     1         34     1     3  0.541250E+01  0.541250E+01  0.337500E+00
     1         35     1     6  0.591875E+01  0.591875E+01  0.506250E+00
     1         36     1     6  0.642500E+01  0.642500E+01  0.506250E+00
     1         37     1     5  0.693125E+01  0.693125E+01  0.506250E+00
     1         38     1     5  0.743750E+01  0.743750E+01  0.506250E+00
     1         39     1     5  0.794375E+01  0.794375E+01  0.506250E+00
     1         40     1     5  0.845000E+01  0.845000E+01  0.506250E+00
     1         41     1     5  0.895625E+01  0.895625E+01  0.506250E+00
     1         42     1     5  0.946250E+01  0.946250E+01  0.506250E+00
     1         43     1     5  0.996875E+01  0.996875E+01  0.506250E+00
     1         44     1     5  0.104750E+02  0.104750E+02  0.506250E+00
     1         45     1     4  0.109812E+02  0.109812E+02  0.506250E+00
     1         46     1     5  0.114875E+02  0.114875E+02  0.506250E+00
     1         47     1     5  0.119937E+02  0.119937E+02  0.506250E+00
     1         48     1     5  0.125000E+02  0.125000E+02  0.506250E+00
     1         49     1     5  0.130062E+02  0.130062E+02  0.506250E+00
     1         50     1     5  0.135125E+02  0.135125E+02  0.506250E+00
     1         51     1     5  0.140187E+02  0.140187E+02  0.506250E+00
     1         52     1     5  0.145250E+02  0.145250E+02  0.506250E+00
     1         53     1     5  0.150312E+02  0.150312E+02  0.506250E+00
     1         54     1     5  0.155375E+02  0.155375E+02  0.506250E+00
     1         55     1     5  0.160437E+02  0.160437E+02  0.506250E+00
     1         56     1     4  0.165500E+02  0.165500E+02  0.506250E+00
     1         57     1     6  0.170562E+02  0.170562E+02  0.506250E+00
     1         58     1     5  0.175625E+02  0.175625E+02  0.506250E+00
     1         59     1     5  0.180687E+02  0.180687E+02  0.506250E+00
     1         60     1     5  0.185750E+02  0.185750E+02  0.506250E+00
     1         61     1     5  0.190812E+02  0.190812E+02  0.506250E+00
     1         62     1     5  0.195875E+02  0.195875E+02  0.506250E+00
     1         63     1     5  0.200937E+02  0.200937E+02  0.506250E+00
     1         64     1     5  0.206000E+02  0.206000E+02  0.506250E+00
     1         65     1     5  0.211062E+02  0.211062E+02  0.506250E+00
     1         66     1     5  0.216125E+02  0.216125E+02  0.506250E+00
     1         67     1     4  0.221187E+02  0.221187E+02  0.506250E+00
     1         68     1     5  0.226250E+02  0.226250E+02  0.506250E+00
     1         69     1     5  0.231312E+02  0.231312E+02  0.506250E+00
     1         70     1     5  0.236375E+02  0.236375E+02  0.506250E+00
     1         71     1     5  0.241437E+02  0.241437E+02  0.506250E+00
     1         72     1     5  0.246500E+02  0.246500E+02  0.506250E+00
     1         73     1     5  0.251562E+02  0.251562E+02  0.506250E+00
     1         74     1     5  0.256625E+02  0.256625E+02  0.506250E+00
     1         75     1     5  0.261687E+02  0.261687E+02  0.506250E+00
     1         76     1     5  0.266750E+02  0.266750E+02  0.506250E+00
     1         77     1     5  0.271812E+02  0.271812E+02  0.506250E+00
     1         78     1     5  0.276875E+02  0.276875E+02  0.506250E+00
     1         79     1     5  0.281937E+02  0.281937E+02  0.506250E+00
     1         80     1     5  0.287000E+02  0.287000E+02  0.506250E+00
     1         81     1     5  0.292062E+02  0.292062E+02  0.506250E+00
     1         82     1     5  0.297125E+02  0.297125E+02  0.506250E+00
     1         83     1     5  0.300000E+02  0.300000E+02  0.287500E+00
