SUMMARY OF JOB INFORMATION
  STEP      INC     ATT  ITRS     TOT TIME     STEP TIME      INC TIME
     1          1     1     3  0.100000E+00  0.100000E+00  0.100000E+00
     1          2     1     3  0.200000E+00  0.200000E+00  0.100000E+00
     1          3     1     5  0.350000E+00  0.350000E+00  0.150000E+00
     1          4     1     5  0.500000E+00  0.500000E+00  0.150000E+00
     1          5     1     5  0.650000E+00  0.650000E+00  0.150000E+00
     1          6     1     5  0.800000E+00  0.800000E+00  0.150000E+00
     1          7     1     5  0.950000E+00  0.950000E+00  0.150000E+00
     1          8     1     5  0.110000E+01  0.110000E+01  0.150000E+00
     1          9     1     5  0.125000E+01  0.125000E+01  0.150000E+00
     1         10     1     5  0.140000E+01  0.140000E+01  0.150000E+00
     1         11     1     5  0.155000E+01  0.155000E+01  0.150000E+00
     1         12     1     5  0.170000E+01  0.170000E+01  0.150000E+00
     1         13     1     5  0.185000E+01  0.185000E+01  0.150000E+00
     1         14     1     5  0.200000E+01  0.200000E+01  0.150000E+00
     1         15     1     5  0.215000E+01  0.215000E+01  0.150000E+00
     1         16     1     5  0.230000E+01  0.230000E+01  0.150000E+00
     1         17     1     5  0.245000E+01  0.245000E+01  0.150000E+00
     1         18     1     5  0.260000E+01  0.260000E+01  0.150000E+00
     1         19     1     5  0.275000E+01  0.275000E+01  0.150000E+00
     1         20     1     5  0.290000E+01  0.290000E+01  0.150000E+00
     1         21     1     5  0.305000E+01  0.305000E+01  0.150000E+00
     1         22     1     5  0.320000E+01  0.320000E+01  0.150000E+00
     1         23     1     5  0.335000E+01  0.335000E+01  0.150000E+00
     1         24     1     5  0.350000E+01  0.350000E+01  0.150000E+00
     1         25     1     5  0.365000E+01  0.365000E+01  0.150000E+00
     1         26     1     5  0.380000E+01  0.380000E+01  0.150000E+00
     1         27     1     5  0.395000E+01  0.395000E+01  0.150000E+00
     1         28     1     5  0.410000E+01  0.410000E+01  0.150000E+00
     1         29     1     4  0.425000E+01  0.425000E+01  0.150000E+00
     1         30     1     4  0.440000E+01  0.440000E+01  0.150000E+00
     1         31     1     5  0.462500E+01  0.462500E+01  0.225000E+00
     1         32     1     4  0.485000E+01  0.485000E+01  0.225000E+00
     1         33     1     4  0.507500E+01  0.507500E+01  0.225000E+00
     1         34     1     3  0.541250E+01  0.541250E+01  0.337500E+00
     1         35     1     6  0.591875E+01  0.591875E+01  0.506250E+00
     1         36     1     6  0.642500E+01  0.642500E+01  0.506250E+00
     1         37     1     5  0.693125E+01  0.693125E+01  0.506250E+00
     1         38     1     5  0.743750E+01  0.743750E+01  0.506250E+00
     1         39     1     5  0.794375E+01  0.794375E+01  0.506250E+00
     1         40     1     5  0.845000E+01  0.845000E+01  0.506250E+00
     1         41     1     5  0.895625E+01  0.895625E+01  0.506250E+00
     1         42     1     5  0.946250E+01  0.946250E+01  0.506250E+00
     1         43     1     5  0.996875E+01  0.996875E+01  0.506250E+00
     1         44     1     5  0.104750E+02  0.104750E+02  0.506250E+00
     1         45     1     4  0.109812E+02  0.109812E+02  0.506250E+00
     1         46     1     5  0.114875E+02  0.114875E+02  0.506250E+00
     1         47     1     5  0.119937E+02  0.119937E+02  0.506250E+00
     1         48     1     5  0.125000E+02  0.125000E+02  0.506250E+00
     1         49     1     5  0.130062E+02  0.130062E+02  0.506250E+00
     1         50     1     5  0.135125E+02  0.135125E+02  0.506250E+00
     1         51     1     5  0.140187E+02  0.140187E+02  0.506250E+00
     1         52     1     5  0.145250E+02  0.145250E+02  0.506250E+00
     1         53     1     5  0.150312E+02  0.150312E+02  0.506250E+00
     1         54     1     5  0.155375E+02  0.155375E+02  0.506250E+00
     1         55     1     5  0.160437E+02  0.160437E+02  0.506250E+00
     1         56     1     4  0.165500E+02  0.165500E+02  0.506250E+00
     1         57     1     6  0.170562E+02  0.170562E+02  0.506250E+00
     1         58     1     5  0.175625E+02  0.175625E+02  0.506250E+00
     1         59     1     5  0.180687E+02  0.180687E+02  0.506250E+00
     1         60     1     5  0.185750E+02  0.185750E+02  0.506250E+00
     1         61     1     5  0.190812E+02  0.190812E+02  0.506250E+00
     1         62     1     5  0.195875E+02  0.195875E+02  0.506250E+00
     1         63     1     5  0.200937E+02  0.200937E+02  0.506250E+00
     1         64     1     5  0.206000E+02  0.206000E+02  0.506250E+00
     1         65     1     5  0.211062E+02  0.211062E+02  0.506250E+00
     1         66     1     5  0.216125E+02  0.216125E+02  0.506250E+00
     1         67     1     4  0.221187E+02  0.221187E+02  0.506250E+00
     1         68     1     5  0.226250E+02  0.226250E+02  0.506250E+00
     1         69     1     5  0.231312E+02  0.231312E+02  0.506250E+00
     1         70     1     5  0.236375E+02  0.236375E+02  0.506250E+00
     1         71     1     5  0.241437E+02  0.241437E+02  0.506250E+00
     1         72     1     5  0.246500E+02  0.246500E+02  0.506250E+00
     1         73     1     5  0.251562E+02  0.251562E+02  0.506250E+00
     1         74     1     5  0.256625E+02  0.256625E+02  0.506250E+00
     1         75     1     5  0.261687E+02  0.261687E+02  0.506250E+00
     1         76     1     5  0.266750E+02  0.266750E+02  0.506250E+00
     1         77     1     5  0.271812E+02  0.271812E+02  0.506250E+00
     1         78     1     5  0.276875E+02  0.276875E+02  0.506250E+00
     1         79     1     5  0.281937E+02  0.281937E+02  0.506250E+00
     1         80     1     5  0.287000E+02  0.287000E+02  0.506250E+00
     1         81     1     5  0.292062E+02  0.292062E+02  0.506250E+00
     1         82     1     5  0.297125E+02  0.297125E+02  0.506250E+00
     1         83     1     5  0.302187E+02  0.302187E+02  0.506250E+00
     1         84     1     5  0.307250E+02  0.307250E+02  0.506250E+00
     1         85     1     5  0.312312E+02  0.312312E+02  0.506250E+00
     1         86     1     5  0.317375E+02  0.317375E+02  0.506250E+00
     1         87     1     5  0.322437E+02  0.322437E+02  0.506250E+00
     1         88     1     5  0.327500E+02  0.327500E+02  0.506250E+00
     1         89     1     5  0.332562E+02  0.332562E+02  0.506250E+00
     1         90     1     5  0.337625E+02  0.337625E+02  0.506250E+00
     1         91     1     5  0.342687E+02  0.342687E+02  0.506250E+00
     1         92     1     5  0.347750E+02  0.347750E+02  0.506250E+00
     1         93     1     5  0.352812E+02  0.352812E+02  0.506250E+00
     1         94     1     5  0.357875E+02  0.357875E+02  0.506250E+00
     1         95     1     5  0.362937E+02  0.362937E+02  0.506250E+00
     1         96     1     5  0.368000E+02  0.368000E+02  0.506250E+00
     1         97     1     5  0.373062E+02  0.373062E+02  0.506250E+00
     1         98     1     5  0.378125E+02  0.378125E+02  0.506250E+00
     1         99     1     4  0.383187E+02  0.383187E+02  0.506250E+00
     1        100     1     5  0.388250E+02  0.388250E+02  0.506250E+00
     1        101     1     5  0.393312E+02  0.393312E+02  0.506250E+00
     1        102     1     5  0.398375E+02  0.398375E+02  0.506250E+00
     1        103     1     5  0.403437E+02  0.403437E+02  0.506250E+00
     1        104     1     5  0.408500E+02  0.408500E+02  0.506250E+00
     1        105     1     5  0.413562E+02  0.413562E+02  0.506250E+00
     1        106     1     5  0.418625E+02  0.418625E+02  0.506250E+00
     1        107     1     5  0.423687E+02  0.423687E+02  0.506250E+00
     1        108     1     5  0.428750E+02  0.428750E+02  0.506250E+00
     1        109     1     5  0.433812E+02  0.433812E+02  0.506250E+00
     1        110     1     4  0.438875E+02  0.438875E+02  0.506250E+00
     1        111     1     5  0.443937E+02  0.443937E+02  0.506250E+00
     1        112     1     5  0.449000E+02  0.449000E+02  0.506250E+00
     1        113     1     5  0.454062E+02  0.454062E+02  0.506250E+00
     1        114     1     5  0.459125E+02  0.459125E+02  0.506250E+00
     1        115     1     5  0.464187E+02  0.464187E+02  0.506250E+00
     1        116     1     5  0.469250E+02  0.469250E+02  0.506250E+00
     1        117     1     5  0.474312E+02  0.474312E+02  0.506250E+00
     1        118     1     5  0.479375E+02  0.479375E+02  0.506250E+00
     1        119     1     5  0.484437E+02  0.484437E+02  0.506250E+00
     1        120     1     5  0.489500E+02  0.489500E+02  0.506250E+00
     1        121     1     4  0.494562E+02  0.494562E+02  0.506250E+00
     1        122     1     5  0.499625E+02  0.499625E+02  0.506250E+00
     1        123     1     5  0.504687E+02  0.504687E+02  0.506250E+00
     1        124     1     5  0.509750E+02  0.509750E+02  0.506250E+00
     1        125     1     5  0.514812E+02  0.514812E+02  0.506250E+00
     1        126     1     5  0.519875E+02  0.519875E+02  0.506250E+00
     1        127     1     5  0.524937E+02  0.524937E+02  0.506250E+00
     1        128     1     5  0.530000E+02  0.530000E+02  0.506250E+00
     1        129     1     5  0.535062E+02  0.535062E+02  0.506250E+00
     1        130     1     5  0.540125E+02  0.540125E+02  0.506250E+00
     1        131     1     5  0.545187E+02  0.545187E+02  0.506250E+00
     1        132     1     4  0.550250E+02  0.550250E+02  0.506250E+00
     1        133     1     5  0.555312E+02  0.555312E+02  0.506250E+00
     1        134     1     5  0.560375E+02  0.560375E+02  0.506250E+00
     1        135     1     5  0.565437E+02  0.565437E+02  0.506250E+00
     1        136     1     5  0.570500E+02  0.570500E+02  0.506250E+00
     1        137     1     5  0.575562E+02  0.575562E+02  0.506250E+00
     1        138     1     5  0.580625E+02  0.580625E+02  0.506250E+00
     1        139     1     5  0.585687E+02  0.585687E+02  0.506250E+00
     1        140     1     5  0.590750E+02  0.590750E+02  0.506250E+00
     1        141     1     5  0.595812E+02  0.595812E+02  0.506250E+00
     1        142     1     5  0.600875E+02  0.600875E+02  0.506250E+00
     1        143     1     4  0.605937E+02  0.605937E+02  0.506250E+00
     1        144     1     5  0.611000E+02  0.611000E+02  0.506250E+00
     1        145     1     5  0.616062E+02  0.616062E+02  0.506250E+00
     1        146     1     5  0.621125E+02  0.621125E+02  0.506250E+00
     1        147     1     5  0.626187E+02  0.626187E+02  0.506250E+00
     1        148     1     5  0.631250E+02  0.631250E+02  0.506250E+00
     1        149     1     5  0.636312E+02  0.636312E+02  0.506250E+00
     1        150     1     5  0.641375E+02  0.641375E+02  0.506250E+00
     1        151     1     5  0.646437E+02  0.646437E+02  0.506250E+00
     1        152     1     5  0.651500E+02  0.651500E+02  0.506250E+00
     1        153     1     5  0.656562E+02  0.656562E+02  0.506250E+00
     1        154     1     3  0.661625E+02  0.661625E+02  0.506250E+00
     1        155     1     5  0.666688E+02  0.666688E+02  0.506250E+00
     1        156     1     5  0.671750E+02  0.671750E+02  0.506250E+00
     1        157     1     5  0.676813E+02  0.676813E+02  0.506250E+00
     1        158     1     5  0.681875E+02  0.681875E+02  0.506250E+00
     1        159     1     5  0.686938E+02  0.686938E+02  0.506250E+00
     1        160     1     5  0.692000E+02  0.692000E+02  0.506250E+00
     1        161     1     5  0.697063E+02  0.697063E+02  0.506250E+00
     1        162     1     5  0.702125E+02  0.702125E+02  0.506250E+00
     1        163     1     5  0.707188E+02  0.707188E+02  0.506250E+00
     1        164     1     5  0.712250E+02  0.712250E+02  0.506250E+00
     1        165     1     4  0.717313E+02  0.717313E+02  0.506250E+00
     1        166     1     5  0.722375E+02  0.722375E+02  0.506250E+00
     1        167     1     5  0.727438E+02  0.727438E+02  0.506250E+00
     1        168     1     5  0.732500E+02  0.732500E+02  0.506250E+00
     1        169     1     5  0.737563E+02  0.737563E+02  0.506250E+00
     1        170     1     5  0.742625E+02  0.742625E+02  0.506250E+00
     1        171     1     5  0.747688E+02  0.747688E+02  0.506250E+00
     1        172     1     5  0.752750E+02  0.752750E+02  0.506250E+00
     1        173     1     5  0.757813E+02  0.757813E+02  0.506250E+00
     1        174     1     5  0.762875E+02  0.762875E+02  0.506250E+00
     1        175     1     5  0.767938E+02  0.767938E+02  0.506250E+00
     1        176     1     4  0.773000E+02  0.773000E+02  0.506250E+00
     1        177     1     5  0.778063E+02  0.778063E+02  0.506250E+00
     1        178     1     5  0.783125E+02  0.783125E+02  0.506250E+00
     1        179     1     5  0.788188E+02  0.788188E+02  0.506250E+00
     1        180     1     5  0.793250E+02  0.793250E+02  0.506250E+00
     1        181     1     5  0.798313E+02  0.798313E+02  0.506250E+00
     1        182     1     5  0.803375E+02  0.803375E+02  0.506250E+00
     1        183     1     5  0.808438E+02  0.808438E+02  0.506250E+00
     1        184     1     5  0.813500E+02  0.813500E+02  0.506250E+00
     1        185     1     5  0.818563E+02  0.818563E+02  0.506250E+00
     1        186     1     5  0.823625E+02  0.823625E+02  0.506250E+00
     1        187     1     4  0.828688E+02  0.828688E+02  0.506250E+00
     1        188     1     5  0.833750E+02  0.833750E+02  0.506250E+00
     1        189     1     5  0.838813E+02  0.838813E+02  0.506250E+00
     1        190     1     5  0.843875E+02  0.843875E+02  0.506250E+00
     1        191     1     5  0.848938E+02  0.848938E+02  0.506250E+00
     1        192     1     5  0.854000E+02  0.854000E+02  0.506250E+00
     1        193     1     5  0.859063E+02  0.859063E+02  0.506250E+00
     1        194     1     5  0.864125E+02  0.864125E+02  0.506250E+00
     1        195     1     5  0.869188E+02  0.869188E+02  0.506250E+00
     1        196     1     5  0.874250E+02  0.874250E+02  0.506250E+00
     1        197     1     5  0.879313E+02  0.879313E+02  0.506250E+00
     1        198     1     4  0.884375E+02  0.884375E+02  0.506250E+00
     1        199     1     5  0.889438E+02  0.889438E+02  0.506250E+00
     1        200     1     5  0.894500E+02  0.894500E+02  0.506250E+00
     1        201     1     5  0.899563E+02  0.899563E+02  0.506250E+00
     1        202     1     5  0.904625E+02  0.904625E+02  0.506250E+00
     1        203     1     5  0.909688E+02  0.909688E+02  0.506250E+00
     1        204     1     5  0.914750E+02  0.914750E+02  0.506250E+00
     1        205     1     5  0.919813E+02  0.919813E+02  0.506250E+00
     1        206     1     5  0.924875E+02  0.924875E+02  0.506250E+00
     1        207     1     5  0.929938E+02  0.929938E+02  0.506250E+00
     1        208     1     5  0.935000E+02  0.935000E+02  0.506250E+00
     1        209     1     5  0.940063E+02  0.940063E+02  0.506250E+00
     1        210     1     5  0.945125E+02  0.945125E+02  0.506250E+00
     1        211     1     5  0.950188E+02  0.950188E+02  0.506250E+00
     1        212     1     5  0.955250E+02  0.955250E+02  0.506250E+00
     1        213     1     5  0.960313E+02  0.960313E+02  0.506250E+00
     1        214     1     5  0.965375E+02  0.965375E+02  0.506250E+00
     1        215     1     5  0.970438E+02  0.970438E+02  0.506250E+00
     1        216     1     5  0.975500E+02  0.975500E+02  0.506250E+00
     1        217     1     5  0.980563E+02  0.980563E+02  0.506250E+00
     1        218     1     5  0.985625E+02  0.985625E+02  0.506250E+00
     1        219     1     5  0.990688E+02  0.990688E+02  0.506250E+00
     1        220     1     5  0.995750E+02  0.995750E+02  0.506250E+00
     1        221     1     5  0.100081E+03  0.100081E+03  0.506250E+00
     1        222     1     5  0.100588E+03  0.100588E+03  0.506250E+00
     1        223     1     5  0.101094E+03  0.101094E+03  0.506250E+00
     1        224     1     5  0.101600E+03  0.101600E+03  0.506250E+00
     1        225     1     5  0.102106E+03  0.102106E+03  0.506250E+00
     1        226     1     5  0.102613E+03  0.102613E+03  0.506250E+00
     1        227     1     5  0.103119E+03  0.103119E+03  0.506250E+00
     1        228     1     5  0.103625E+03  0.103625E+03  0.506250E+00
     1        229     1     5  0.104131E+03  0.104131E+03  0.506250E+00
     1        230     1     5  0.104638E+03  0.104638E+03  0.506250E+00
     1        231     1     5  0.105144E+03  0.105144E+03  0.506250E+00
     1        232     1     5  0.105650E+03  0.105650E+03  0.506250E+00
     1        233     1     5  0.106156E+03  0.106156E+03  0.506250E+00
     1        234     1     5  0.106663E+03  0.106663E+03  0.506250E+00
     1        235     1     5  0.107169E+03  0.107169E+03  0.506250E+00
     1        236     1     5  0.107675E+03  0.107675E+03  0.506250E+00
     1        237     1     5  0.108181E+03  0.108181E+03  0.506250E+00
     1        238     1     5  0.108688E+03  0.108688E+03  0.506250E+00
     1        239     1     5  0.109194E+03  0.109194E+03  0.506250E+00
     1        240     1     5  0.109700E+03  0.109700E+03  0.506250E+00
     1        241     1     4  0.110206E+03  0.110206E+03  0.506250E+00
     1        242     1     5  0.110713E+03  0.110713E+03  0.506250E+00
     1        243     1     5  0.111219E+03  0.111219E+03  0.506250E+00
     1        244     1     5  0.111725E+03  0.111725E+03  0.506250E+00
     1        245     1     5  0.112231E+03  0.112231E+03  0.506250E+00
     1        246     1     5  0.112738E+03  0.112738E+03  0.506250E+00
     1        247     1     5  0.113244E+03  0.113244E+03  0.506250E+00
     1        248     1     5  0.113750E+03  0.113750E+03  0.506250E+00
     1        249     1     5  0.114256E+03  0.114256E+03  0.506250E+00
     1        250     1     5  0.114763E+03  0.114763E+03  0.506250E+00
     1        251     1     5  0.115269E+03  0.115269E+03  0.506250E+00
     1        252     1     4  0.115775E+03  0.115775E+03  0.506250E+00
     1        253     1     5  0.116281E+03  0.116281E+03  0.506250E+00
     1        254     1     5  0.116788E+03  0.116788E+03  0.506250E+00
     1        255     1     5  0.117294E+03  0.117294E+03  0.506250E+00
     1        256     1     5  0.117800E+03  0.117800E+03  0.506250E+00
     1        257     1     5  0.118306E+03  0.118306E+03  0.506250E+00
     1        258     1     5  0.118813E+03  0.118813E+03  0.506250E+00
     1        259     1     5  0.119319E+03  0.119319E+03  0.506250E+00
     1        260     1     5  0.119825E+03  0.119825E+03  0.506250E+00
     1        261     1     5  0.120000E+03  0.120000E+03  0.175000E+00
