SUMMARY OF JOB INFORMATION
  STEP      INC     ATT  ITRS     TOT TIME     STEP TIME      INC TIME
     1          1     1     3  0.100000E+00  0.100000E+00  0.100000E+00
     1          2     1     3  0.200000E+00  0.200000E+00  0.100000E+00
     1          3     1     3  0.350000E+00  0.350000E+00  0.150000E+00
     1          4     1     5  0.575000E+00  0.575000E+00  0.225000E+00
     1          5     1     5  0.800000E+00  0.800000E+00  0.225000E+00
     1          6     1     5  0.102500E+01  0.102500E+01  0.225000E+00
     1          7     1     5  0.125000E+01  0.125000E+01  0.225000E+00
     1          8     1     5  0.147500E+01  0.147500E+01  0.225000E+00
     1          9     1     5  0.170000E+01  0.170000E+01  0.225000E+00
     1         10     1     5  0.192500E+01  0.192500E+01  0.225000E+00
     1         11     1     5  0.215000E+01  0.215000E+01  0.225000E+00
     1         12     1     5  0.237500E+01  0.237500E+01  0.225000E+00
     1         13     1     5  0.260000E+01  0.260000E+01  0.225000E+00
     1         14     1     5  0.282500E+01  0.282500E+01  0.225000E+00
     1         15     1     5  0.305000E+01  0.305000E+01  0.225000E+00
     1         16     1     5  0.327500E+01  0.327500E+01  0.225000E+00
     1         17     1     5  0.350000E+01  0.350000E+01  0.225000E+00
     1         18     1     5  0.372500E+01  0.372500E+01  0.225000E+00
     1         19     1     5  0.395000E+01  0.395000E+01  0.225000E+00
     1         20     1     5  0.417500E+01  0.417500E+01  0.225000E+00
     1         21     1     5  0.440000E+01  0.440000E+01  0.225000E+00
     1         22     1     5  0.462500E+01  0.462500E+01  0.225000E+00
     1         23     1     5  0.485000E+01  0.485000E+01  0.225000E+00
     1         24     1     5  0.507500E+01  0.507500E+01  0.225000E+00
     1         25     1     5  0.530000E+01  0.530000E+01  0.225000E+00
     1         26     1     5  0.552500E+01  0.552500E+01  0.225000E+00
     1         27     1     5  0.575000E+01  0.575000E+01  0.225000E+00
     1         28     1     5  0.597500E+01  0.597500E+01  0.225000E+00
     1         29     1     5  0.620000E+01  0.620000E+01  0.225000E+00
     1         30     1     5  0.642500E+01  0.642500E+01  0.225000E+00
     1         31     1     5  0.665000E+01  0.665000E+01  0.225000E+00
     1         32     1     5  0.687500E+01  0.687500E+01  0.225000E+00
     1         33     1     5  0.710000E+01  0.710000E+01  0.225000E+00
     1         34     1     5  0.732500E+01  0.732500E+01  0.225000E+00
     1         35     1     5  0.755000E+01  0.755000E+01  0.225000E+00
     1         36     1     5  0.777500E+01  0.777500E+01  0.225000E+00
     1         37     1     5  0.800000E+01  0.800000E+01  0.225000E+00
     1         38     1     5  0.822500E+01  0.822500E+01  0.225000E+00
     1         39     1     5  0.845000E+01  0.845000E+01  0.225000E+00
     1         40     1     5  0.867500E+01  0.867500E+01  0.225000E+00
     1         41     1     4  0.890000E+01  0.890000E+01  0.225000E+00
     1         42     1     4  0.912500E+01  0.912500E+01  0.225000E+00
     1         43     1     5  0.946250E+01  0.946250E+01  0.337500E+00
     1         44     1     4  0.980000E+01  0.980000E+01  0.337500E+00
     1         45     1     4  0.101375E+02  0.101375E+02  0.337500E+00
     1         46     1     4  0.106438E+02  0.106438E+02  0.506250E+00
     1         47     1     4  0.114031E+02  0.114031E+02  0.759375E+00
     1         48     1     6  0.125422E+02  0.125422E+02  0.113906E+01
     1         49     1     6  0.136813E+02  0.136813E+02  0.113906E+01
     1         50     1     6  0.148203E+02  0.148203E+02  0.113906E+01
     1         51     1     6  0.159594E+02  0.159594E+02  0.113906E+01
     1         52     1     5  0.170984E+02  0.170984E+02  0.113906E+01
     1         53     1U    5  0.170984E+02  0.170984E+02  0.113906E+01
     1         53     2     5  0.173832E+02  0.173832E+02  0.284766E+00
     1         54     1     5  0.176680E+02  0.176680E+02  0.284766E+00
     1         55     1     5  0.179527E+02  0.179527E+02  0.284766E+00
     1         56     1     5  0.182375E+02  0.182375E+02  0.284766E+00
     1         57     1     5  0.185223E+02  0.185223E+02  0.284766E+00
     1         58     1     5  0.188070E+02  0.188070E+02  0.284766E+00
     1         59     1     5  0.190918E+02  0.190918E+02  0.284766E+00
     1         60     1     5  0.193766E+02  0.193766E+02  0.284766E+00
     1         61     1     5  0.196613E+02  0.196613E+02  0.284766E+00
     1         62     1     5  0.199461E+02  0.199461E+02  0.284766E+00
     1         63     1     5  0.202309E+02  0.202309E+02  0.284766E+00
     1         64     1     5  0.205156E+02  0.205156E+02  0.284766E+00
     1         65     1     5  0.208004E+02  0.208004E+02  0.284766E+00
     1         66     1     5  0.210852E+02  0.210852E+02  0.284766E+00
     1         67     1     5  0.213699E+02  0.213699E+02  0.284766E+00
     1         68     1     5  0.216547E+02  0.216547E+02  0.284766E+00
     1         69     1     5  0.219395E+02  0.219395E+02  0.284766E+00
     1         70     1     5  0.222242E+02  0.222242E+02  0.284766E+00
     1         71     1     5  0.225090E+02  0.225090E+02  0.284766E+00
     1         72     1     4  0.227938E+02  0.227938E+02  0.284766E+00
     1         73     1     4  0.230785E+02  0.230785E+02  0.284766E+00
     1         74     1     4  0.235057E+02  0.235057E+02  0.427148E+00
     1         75     1     4  0.241464E+02  0.241464E+02  0.640723E+00
     1         76     1     6  0.251075E+02  0.251075E+02  0.961084E+00
     1         77     1     6  0.260686E+02  0.260686E+02  0.961084E+00
     1         78     1     5  0.270296E+02  0.270296E+02  0.961084E+00
     1         79     1     5  0.279907E+02  0.279907E+02  0.961084E+00
     1         80     1     5  0.289518E+02  0.289518E+02  0.961084E+00
     1         81     1     5  0.299129E+02  0.299129E+02  0.961084E+00
     1         82     1     4  0.300000E+02  0.300000E+02  0.871094E-01
