SUMMARY OF JOB INFORMATION
  STEP      INC     ATT  ITRS     TOT TIME     STEP TIME      INC TIME
     1          1     1     3  0.100000E+00  0.100000E+00  0.100000E+00
     1          2     1     5  0.200000E+00  0.200000E+00  0.100000E+00
     1          3     1     4  0.300000E+00  0.300000E+00  0.100000E+00
     1          4     1     5  0.400000E+00  0.400000E+00  0.100000E+00
     1          5     1     5  0.500000E+00  0.500000E+00  0.100000E+00
     1          6     1     4  0.600000E+00  0.600000E+00  0.100000E+00
     1          7     1     5  0.700000E+00  0.700000E+00  0.100000E+00
     1          8     1     5  0.800000E+00  0.800000E+00  0.100000E+00
     1          9     1     4  0.900000E+00  0.900000E+00  0.100000E+00
     1         10     1     5  0.100000E+01  0.100000E+01  0.100000E+00
     1         11     1     5  0.110000E+01  0.110000E+01  0.100000E+00
     1         12     1     4  0.120000E+01  0.120000E+01  0.100000E+00
     1         13     1     5  0.130000E+01  0.130000E+01  0.100000E+00
     1         14     1     5  0.140000E+01  0.140000E+01  0.100000E+00
     1         15     1     4  0.150000E+01  0.150000E+01  0.100000E+00
     1         16     1     5  0.160000E+01  0.160000E+01  0.100000E+00
     1         17     1     5  0.170000E+01  0.170000E+01  0.100000E+00
     1         18     1     5  0.180000E+01  0.180000E+01  0.100000E+00
     1         19     1     5  0.190000E+01  0.190000E+01  0.100000E+00
     1         20     1     5  0.200000E+01  0.200000E+01  0.100000E+00
     1         21     1     5  0.210000E+01  0.210000E+01  0.100000E+00
     1         22     1     5  0.220000E+01  0.220000E+01  0.100000E+00
     1         23     1     4  0.230000E+01  0.230000E+01  0.100000E+00
     1         24     1     5  0.240000E+01  0.240000E+01  0.100000E+00
     1         25     1     5  0.250000E+01  0.250000E+01  0.100000E+00
     1         26     1     4  0.260000E+01  0.260000E+01  0.100000E+00
     1         27     1     5  0.270000E+01  0.270000E+01  0.100000E+00
     1         28     1     5  0.280000E+01  0.280000E+01  0.100000E+00
     1         29     1     4  0.290000E+01  0.290000E+01  0.100000E+00
     1         30     1     5  0.300000E+01  0.300000E+01  0.100000E+00
     1         31     1     5  0.310000E+01  0.310000E+01  0.100000E+00
     1         32     1     4  0.320000E+01  0.320000E+01  0.100000E+00
     1         33     1     5  0.330000E+01  0.330000E+01  0.100000E+00
     1         34     1     5  0.340000E+01  0.340000E+01  0.100000E+00
     1         35     1     4  0.350000E+01  0.350000E+01  0.100000E+00
     1         36     1     5  0.360000E+01  0.360000E+01  0.100000E+00
     1         37     1     5  0.370000E+01  0.370000E+01  0.100000E+00
     1         38     1     3  0.380000E+01  0.380000E+01  0.100000E+00
     1         39     1     5  0.390000E+01  0.390000E+01  0.100000E+00
     1         40     1     5  0.400000E+01  0.400000E+01  0.100000E+00
     1         41     1     3  0.410000E+01  0.410000E+01  0.100000E+00
     1         42     1     5  0.420000E+01  0.420000E+01  0.100000E+00
     1         43     1     5  0.430000E+01  0.430000E+01  0.100000E+00
     1         44     1     4  0.440000E+01  0.440000E+01  0.100000E+00
     1         45     1     5  0.450000E+01  0.450000E+01  0.100000E+00
     1         46     1     5  0.460000E+01  0.460000E+01  0.100000E+00
     1         47     1     4  0.470000E+01  0.470000E+01  0.100000E+00
     1         48     1     5  0.480000E+01  0.480000E+01  0.100000E+00
     1         49     1     5  0.490000E+01  0.490000E+01  0.100000E+00
     1         50     1     4  0.500000E+01  0.500000E+01  0.100000E+00
     1         51     1     5  0.510000E+01  0.510000E+01  0.100000E+00
     1         52     1     4  0.520000E+01  0.520000E+01  0.100000E+00
     1         53     1     4  0.530000E+01  0.530000E+01  0.100000E+00
     1         54     1     5  0.545000E+01  0.545000E+01  0.150000E+00
     1         55     1     5  0.560000E+01  0.560000E+01  0.150000E+00
     1         56     1     5  0.575000E+01  0.575000E+01  0.150000E+00
     1         57     1     5  0.590000E+01  0.590000E+01  0.150000E+00
     1         58     1     5  0.605000E+01  0.605000E+01  0.150000E+00
     1         59     1     5  0.620000E+01  0.620000E+01  0.150000E+00
     1         60     1     5  0.635000E+01  0.635000E+01  0.150000E+00
     1         61     1     5  0.650000E+01  0.650000E+01  0.150000E+00
     1         62     1     5  0.665000E+01  0.665000E+01  0.150000E+00
     1         63     1     5  0.680000E+01  0.680000E+01  0.150000E+00
     1         64     1     5  0.695000E+01  0.695000E+01  0.150000E+00
     1         65     1     5  0.710000E+01  0.710000E+01  0.150000E+00
     1         66     1     5  0.725000E+01  0.725000E+01  0.150000E+00
     1         67     1     5  0.740000E+01  0.740000E+01  0.150000E+00
     1         68     1     5  0.755000E+01  0.755000E+01  0.150000E+00
     1         69     1     5  0.770000E+01  0.770000E+01  0.150000E+00
     1         70     1     5  0.785000E+01  0.785000E+01  0.150000E+00
     1         71     1     5  0.800000E+01  0.800000E+01  0.150000E+00
     1         72     1     5  0.815000E+01  0.815000E+01  0.150000E+00
     1         73     1     5  0.830000E+01  0.830000E+01  0.150000E+00
     1         74     1     5  0.845000E+01  0.845000E+01  0.150000E+00
     1         75     1     5  0.860000E+01  0.860000E+01  0.150000E+00
     1         76     1     5  0.875000E+01  0.875000E+01  0.150000E+00
     1         77     1     5  0.890000E+01  0.890000E+01  0.150000E+00
     1         78     1     5  0.905000E+01  0.905000E+01  0.150000E+00
     1         79     1     5  0.920000E+01  0.920000E+01  0.150000E+00
     1         80     1     5  0.935000E+01  0.935000E+01  0.150000E+00
     1         81     1     5  0.950000E+01  0.950000E+01  0.150000E+00
     1         82     1     5  0.965000E+01  0.965000E+01  0.150000E+00
     1         83     1     5  0.980000E+01  0.980000E+01  0.150000E+00
     1         84     1     5  0.995000E+01  0.995000E+01  0.150000E+00
     1         85     1     5  0.101000E+02  0.101000E+02  0.150000E+00
     1         86     1     5  0.102500E+02  0.102500E+02  0.150000E+00
     1         87     1     5  0.104000E+02  0.104000E+02  0.150000E+00
     1         88     1     5  0.105500E+02  0.105500E+02  0.150000E+00
     1         89     1     5  0.107000E+02  0.107000E+02  0.150000E+00
     1         90     1     5  0.108500E+02  0.108500E+02  0.150000E+00
     1         91     1     5  0.110000E+02  0.110000E+02  0.150000E+00
     1         92     1     5  0.111500E+02  0.111500E+02  0.150000E+00
     1         93     1     5  0.113000E+02  0.113000E+02  0.150000E+00
     1         94     1     5  0.114500E+02  0.114500E+02  0.150000E+00
     1         95     1     5  0.116000E+02  0.116000E+02  0.150000E+00
     1         96     1     5  0.117500E+02  0.117500E+02  0.150000E+00
     1         97     1     5  0.119000E+02  0.119000E+02  0.150000E+00
     1         98     1     5  0.120500E+02  0.120500E+02  0.150000E+00
     1         99     1     5  0.122000E+02  0.122000E+02  0.150000E+00
     1        100     1     5  0.123500E+02  0.123500E+02  0.150000E+00
     1        101     1     5  0.125000E+02  0.125000E+02  0.150000E+00
     1        102     1     5  0.126500E+02  0.126500E+02  0.150000E+00
     1        103     1     5  0.128000E+02  0.128000E+02  0.150000E+00
     1        104     1     5  0.129500E+02  0.129500E+02  0.150000E+00
     1        105     1     5  0.131000E+02  0.131000E+02  0.150000E+00
     1        106     1     5  0.132500E+02  0.132500E+02  0.150000E+00
     1        107     1     5  0.134000E+02  0.134000E+02  0.150000E+00
     1        108     1     5  0.135500E+02  0.135500E+02  0.150000E+00
     1        109     1     5  0.137000E+02  0.137000E+02  0.150000E+00
     1        110     1     4  0.138500E+02  0.138500E+02  0.150000E+00
     1        111     1     4  0.140000E+02  0.140000E+02  0.150000E+00
     1        112     1     5  0.142250E+02  0.142250E+02  0.225000E+00
     1        113     1     5  0.144500E+02  0.144500E+02  0.225000E+00
     1        114     1     5  0.146750E+02  0.146750E+02  0.225000E+00
     1        115     1     3  0.149000E+02  0.149000E+02  0.225000E+00
     1        116     1     5  0.151250E+02  0.151250E+02  0.225000E+00
     1        117     1     3  0.153500E+02  0.153500E+02  0.225000E+00
     1        118     1     5  0.155750E+02  0.155750E+02  0.225000E+00
     1        119     1     3  0.158000E+02  0.158000E+02  0.225000E+00
     1        120     1     5  0.160250E+02  0.160250E+02  0.225000E+00
     1        121     1     4  0.162500E+02  0.162500E+02  0.225000E+00
     1        122     1     5  0.164750E+02  0.164750E+02  0.225000E+00
     1        123     1     5  0.167000E+02  0.167000E+02  0.225000E+00
     1        124     1     5  0.169250E+02  0.169250E+02  0.225000E+00
     1        125     1     5  0.171500E+02  0.171500E+02  0.225000E+00
     1        126     1     5  0.173750E+02  0.173750E+02  0.225000E+00
     1        127     1     5  0.176000E+02  0.176000E+02  0.225000E+00
     1        128     1     5  0.178250E+02  0.178250E+02  0.225000E+00
     1        129     1     5  0.180500E+02  0.180500E+02  0.225000E+00
     1        130     1     5  0.182750E+02  0.182750E+02  0.225000E+00
     1        131     1     5  0.185000E+02  0.185000E+02  0.225000E+00
     1        132     1     5  0.187250E+02  0.187250E+02  0.225000E+00
     1        133     1     5  0.189500E+02  0.189500E+02  0.225000E+00
     1        134     1     5  0.191750E+02  0.191750E+02  0.225000E+00
     1        135     1     5  0.194000E+02  0.194000E+02  0.225000E+00
     1        136     1     5  0.196250E+02  0.196250E+02  0.225000E+00
     1        137     1     5  0.198500E+02  0.198500E+02  0.225000E+00
     1        138     1     5  0.200750E+02  0.200750E+02  0.225000E+00
     1        139     1     5  0.203000E+02  0.203000E+02  0.225000E+00
     1        140     1     4  0.205250E+02  0.205250E+02  0.225000E+00
     1        141     1     5  0.207500E+02  0.207500E+02  0.225000E+00
     1        142     1     4  0.209750E+02  0.209750E+02  0.225000E+00
     1        143     1     5  0.212000E+02  0.212000E+02  0.225000E+00
     1        144     1     4  0.214250E+02  0.214250E+02  0.225000E+00
     1        145     1     5  0.216500E+02  0.216500E+02  0.225000E+00
     1        146     1     4  0.218750E+02  0.218750E+02  0.225000E+00
     1        147     1     5  0.221000E+02  0.221000E+02  0.225000E+00
     1        148     1     4  0.223250E+02  0.223250E+02  0.225000E+00
     1        149     1     5  0.225500E+02  0.225500E+02  0.225000E+00
     1        150     1     5  0.227750E+02  0.227750E+02  0.225000E+00
     1        151     1     5  0.230000E+02  0.230000E+02  0.225000E+00
     1        152     1     5  0.232250E+02  0.232250E+02  0.225000E+00
     1        153     1     5  0.234500E+02  0.234500E+02  0.225000E+00
     1        154     1     5  0.236750E+02  0.236750E+02  0.225000E+00
     1        155     1     5  0.239000E+02  0.239000E+02  0.225000E+00
     1        156     1     5  0.241250E+02  0.241250E+02  0.225000E+00
     1        157     1     5  0.243500E+02  0.243500E+02  0.225000E+00
     1        158     1     5  0.245750E+02  0.245750E+02  0.225000E+00
     1        159     1     5  0.248000E+02  0.248000E+02  0.225000E+00
     1        160     1     5  0.250250E+02  0.250250E+02  0.225000E+00
     1        161     1     5  0.252500E+02  0.252500E+02  0.225000E+00
     1        162     1     5  0.254750E+02  0.254750E+02  0.225000E+00
     1        163     1     5  0.257000E+02  0.257000E+02  0.225000E+00
     1        164     1     5  0.259250E+02  0.259250E+02  0.225000E+00
     1        165     1     5  0.261500E+02  0.261500E+02  0.225000E+00
     1        166     1     5  0.263750E+02  0.263750E+02  0.225000E+00
     1        167     1     4  0.266000E+02  0.266000E+02  0.225000E+00
     1        168     1     5  0.268250E+02  0.268250E+02  0.225000E+00
     1        169     1     4  0.270500E+02  0.270500E+02  0.225000E+00
     1        170     1     5  0.272750E+02  0.272750E+02  0.225000E+00
     1        171     1     4  0.275000E+02  0.275000E+02  0.225000E+00
     1        172     1     5  0.277250E+02  0.277250E+02  0.225000E+00
     1        173     1     4  0.279500E+02  0.279500E+02  0.225000E+00
     1        174     1     5  0.281750E+02  0.281750E+02  0.225000E+00
     1        175     1     5  0.284000E+02  0.284000E+02  0.225000E+00
     1        176     1     5  0.286250E+02  0.286250E+02  0.225000E+00
     1        177     1     5  0.288500E+02  0.288500E+02  0.225000E+00
     1        178     1     5  0.290750E+02  0.290750E+02  0.225000E+00
     1        179     1     5  0.293000E+02  0.293000E+02  0.225000E+00
     1        180     1     5  0.295250E+02  0.295250E+02  0.225000E+00
     1        181     1     5  0.297500E+02  0.297500E+02  0.225000E+00
     1        182     1     5  0.299750E+02  0.299750E+02  0.225000E+00
     1        183     1     4  0.300000E+02  0.300000E+02  0.250000E-01
