*INCLUDE, INPUT=Cantilever.msh
*INCLUDE, INPUT=FIX.nam
*INCLUDE, INPUT=BOTTOMTEMP.nam
*INCLUDE, INPUT=TOPLOAD.dfl

*MATERIAL,Name=ALUMINUM
*ELASTIC
 70E9, 0.35
*DENSITY
 2700
*CONDUCTIVITY
 167
*SPECIFIC HEAT
 896
*SOLID SECTION,ELSET=Eall,Material=ALUMINUM
*INITIAL CONDITIONS,TYPE=TEMPERATURE
 Nall,300

*STEP
*HEAT TRANSFER, STEADY STATE

*BOUNDARY
 BOTTOMTEMP,11,11,300
*BOUNDARY
 FIX,1,6,0

*NODE FILE
 TS
*EL FILE
 HFL
*END STEP

*END STEP
