*INCLUDE, INPUT=allinone.inp
*INCLUDE, INPUT=add_amplitude.inp
*INCLUDE, INPUT=FIX.nam

*MATERIAL,NAME=Aluminum
*CONDUCTIVITY 
1.6700E+02
*ELASTIC
70E9, 0.35
*EXPANSION
24.0000E-6
*SPECIFIC HEAT
8.9600E+02
*DENSITY
2.7000E+03
*BOUNDARY
BOTTOM,11,11,3.0000E+02
*BOUNDARY
FIX,1
*BOUNDARY
FIX,2
*BOUNDARY
FIX,3
*BOUNDARY
FIX,4
*BOUNDARY
FIX,5
*BOUNDARY
FIX,6
*SOLID SECTION,MATERIAL=Aluminum,ELSET=Eall

*STEP 
*HEAT TRANSFER,STEADY STATE  
*DFLUX
*INCLUDE, INPUT=TOPLQ.dfl
*NODE FILE 
NT  
*EL FILE 
HFL
*NODE PRINT,NSET=TOPLQ
RFL
*NODE PRINT,NSET=BOTTOM
RFL
*END STEP

*STEP
*COUPLED TEMPERATURE-DISPLACEMENT, STEADY STATE
1,1
*DFLUX
*INCLUDE, INPUT=TOPLQ.dfl

*NODE FILE 
NT, U  
*EL FILE 
S, E
*NODE PRINT,NSET=Nall
U
*END STEP


