SUMMARY OF JOB INFORMATION
  STEP      INC     ATT  ITRS     TOT TIME     STEP TIME      INC TIME
     1          1     1     3  0.100000E+00  0.100000E+00  0.100000E+00
     1          2     1     5  0.200000E+00  0.200000E+00  0.100000E+00
     1          3     1     5  0.300000E+00  0.300000E+00  0.100000E+00
     1          4     1     5  0.400000E+00  0.400000E+00  0.100000E+00
     1          5     1     5  0.500000E+00  0.500000E+00  0.100000E+00
     1          6     1     5  0.600000E+00  0.600000E+00  0.100000E+00
     1          7     1     5  0.700000E+00  0.700000E+00  0.100000E+00
     1          8     1     5  0.800000E+00  0.800000E+00  0.100000E+00
     1          9     1     5  0.900000E+00  0.900000E+00  0.100000E+00
     1         10     1     5  0.100000E+01  0.100000E+01  0.100000E+00
     1         11     1     5  0.110000E+01  0.110000E+01  0.100000E+00
     1         12     1     5  0.120000E+01  0.120000E+01  0.100000E+00
     1         13     1     5  0.130000E+01  0.130000E+01  0.100000E+00
     1         14     1     5  0.140000E+01  0.140000E+01  0.100000E+00
     1         15     1     5  0.150000E+01  0.150000E+01  0.100000E+00
     1         16     1     5  0.160000E+01  0.160000E+01  0.100000E+00
     1         17     1     4  0.170000E+01  0.170000E+01  0.100000E+00
     1         18     1     4  0.180000E+01  0.180000E+01  0.100000E+00
     1         19     1     3  0.195000E+01  0.195000E+01  0.150000E+00
     1         20     1     5  0.217500E+01  0.217500E+01  0.225000E+00
     1         21     1     5  0.240000E+01  0.240000E+01  0.225000E+00
     1         22     1     5  0.262500E+01  0.262500E+01  0.225000E+00
     1         23     1     5  0.285000E+01  0.285000E+01  0.225000E+00
     1         24     1     5  0.307500E+01  0.307500E+01  0.225000E+00
     1         25     1     5  0.330000E+01  0.330000E+01  0.225000E+00
     1         26     1     5  0.352500E+01  0.352500E+01  0.225000E+00
     1         27     1     5  0.375000E+01  0.375000E+01  0.225000E+00
     1         28     1     5  0.397500E+01  0.397500E+01  0.225000E+00
     1         29     1     3  0.420000E+01  0.420000E+01  0.225000E+00
     1         30     1     5  0.442500E+01  0.442500E+01  0.225000E+00
     1         31     1     5  0.465000E+01  0.465000E+01  0.225000E+00
     1         32     1     5  0.487500E+01  0.487500E+01  0.225000E+00
     1         33     1     5  0.510000E+01  0.510000E+01  0.225000E+00
     1         34     1     5  0.532500E+01  0.532500E+01  0.225000E+00
     1         35     1     5  0.555000E+01  0.555000E+01  0.225000E+00
     1         36     1     5  0.577500E+01  0.577500E+01  0.225000E+00
     1         37     1     3  0.600000E+01  0.600000E+01  0.225000E+00
     1         38     1     3  0.622500E+01  0.622500E+01  0.225000E+00
     1         39     1     5  0.656250E+01  0.656250E+01  0.337500E+00
     1         40     1     5  0.690000E+01  0.690000E+01  0.337500E+00
     1         41     1     5  0.723750E+01  0.723750E+01  0.337500E+00
     1         42     1     5  0.757500E+01  0.757500E+01  0.337500E+00
     1         43     1     5  0.791250E+01  0.791250E+01  0.337500E+00
     1         44     1     3  0.825000E+01  0.825000E+01  0.337500E+00
     1         45     1     5  0.858750E+01  0.858750E+01  0.337500E+00
     1         46     1     5  0.892500E+01  0.892500E+01  0.337500E+00
     1         47     1     5  0.926250E+01  0.926250E+01  0.337500E+00
     1         48     1     5  0.960000E+01  0.960000E+01  0.337500E+00
     1         49     1     5  0.993750E+01  0.993750E+01  0.337500E+00
     1         50     1     3  0.102750E+02  0.102750E+02  0.337500E+00
     1         51     1     5  0.106125E+02  0.106125E+02  0.337500E+00
     1         52     1     5  0.109500E+02  0.109500E+02  0.337500E+00
     1         53     1     5  0.112875E+02  0.112875E+02  0.337500E+00
     1         54     1     5  0.116250E+02  0.116250E+02  0.337500E+00
     1         55     1     5  0.119625E+02  0.119625E+02  0.337500E+00
     1         56     1     5  0.123000E+02  0.123000E+02  0.337500E+00
     1         57     1     5  0.126375E+02  0.126375E+02  0.337500E+00
     1         58     1     5  0.129750E+02  0.129750E+02  0.337500E+00
     1         59     1     5  0.133125E+02  0.133125E+02  0.337500E+00
     1         60     1     5  0.136500E+02  0.136500E+02  0.337500E+00
     1         61     1     5  0.139875E+02  0.139875E+02  0.337500E+00
     1         62     1     5  0.143250E+02  0.143250E+02  0.337500E+00
     1         63     1     5  0.146625E+02  0.146625E+02  0.337500E+00
     1         64     1     5  0.150000E+02  0.150000E+02  0.337500E+00
     1         65     1     5  0.153375E+02  0.153375E+02  0.337500E+00
     1         66     1     5  0.156750E+02  0.156750E+02  0.337500E+00
     1         67     1     5  0.160125E+02  0.160125E+02  0.337500E+00
     1         68     1     5  0.163500E+02  0.163500E+02  0.337500E+00
     1         69     1     3  0.166875E+02  0.166875E+02  0.337500E+00
     1         70     1     5  0.170250E+02  0.170250E+02  0.337500E+00
     1         71     1     5  0.173625E+02  0.173625E+02  0.337500E+00
     1         72     1     5  0.177000E+02  0.177000E+02  0.337500E+00
     1         73     1     5  0.180375E+02  0.180375E+02  0.337500E+00
     1         74     1     5  0.183750E+02  0.183750E+02  0.337500E+00
     1         75     1     3  0.187125E+02  0.187125E+02  0.337500E+00
     1         76     1     5  0.190500E+02  0.190500E+02  0.337500E+00
     1         77     1     5  0.193875E+02  0.193875E+02  0.337500E+00
     1         78     1     5  0.197250E+02  0.197250E+02  0.337500E+00
     1         79     1     5  0.200625E+02  0.200625E+02  0.337500E+00
     1         80     1     5  0.204000E+02  0.204000E+02  0.337500E+00
     1         81     1     4  0.207375E+02  0.207375E+02  0.337500E+00
     1         82     1     5  0.210750E+02  0.210750E+02  0.337500E+00
     1         83     1     5  0.214125E+02  0.214125E+02  0.337500E+00
     1         84     1     5  0.217500E+02  0.217500E+02  0.337500E+00
     1         85     1     5  0.220875E+02  0.220875E+02  0.337500E+00
     1         86     1     5  0.224250E+02  0.224250E+02  0.337500E+00
     1         87     1     4  0.227625E+02  0.227625E+02  0.337500E+00
     1         88     1     5  0.231000E+02  0.231000E+02  0.337500E+00
     1         89     1     5  0.234375E+02  0.234375E+02  0.337500E+00
     1         90     1     5  0.237750E+02  0.237750E+02  0.337500E+00
     1         91     1     5  0.241125E+02  0.241125E+02  0.337500E+00
     1         92     1     5  0.244500E+02  0.244500E+02  0.337500E+00
     1         93     1     5  0.247875E+02  0.247875E+02  0.337500E+00
     1         94     1     5  0.251250E+02  0.251250E+02  0.337500E+00
     1         95     1     5  0.254625E+02  0.254625E+02  0.337500E+00
     1         96     1     5  0.258000E+02  0.258000E+02  0.337500E+00
     1         97     1     5  0.261375E+02  0.261375E+02  0.337500E+00
     1         98     1     5  0.264750E+02  0.264750E+02  0.337500E+00
     1         99     1     5  0.268125E+02  0.268125E+02  0.337500E+00
     1        100     1     5  0.271500E+02  0.271500E+02  0.337500E+00
     1        101     1     5  0.274875E+02  0.274875E+02  0.337500E+00
     1        102     1     5  0.278250E+02  0.278250E+02  0.337500E+00
     1        103     1     5  0.281625E+02  0.281625E+02  0.337500E+00
     1        104     1     5  0.285000E+02  0.285000E+02  0.337500E+00
     1        105     1     5  0.288375E+02  0.288375E+02  0.337500E+00
     1        106     1     4  0.291750E+02  0.291750E+02  0.337500E+00
     1        107     1     5  0.295125E+02  0.295125E+02  0.337500E+00
     1        108     1     5  0.298500E+02  0.298500E+02  0.337500E+00
     1        109     1     5  0.300000E+02  0.300000E+02  0.150000E+00
