SUMMARY OF JOB INFORMATION
  STEP      INC     ATT  ITRS     TOT TIME     STEP TIME      INC TIME
     1          1     1     3  0.100000E+00  0.100000E+00  0.100000E+00
     1          2     1     5  0.200000E+00  0.200000E+00  0.100000E+00
     1          3     1     5  0.300000E+00  0.300000E+00  0.100000E+00
     1          4     1     5  0.400000E+00  0.400000E+00  0.100000E+00
     1          5     1     5  0.500000E+00  0.500000E+00  0.100000E+00
     1          6     1     5  0.600000E+00  0.600000E+00  0.100000E+00
     1          7     1     3  0.700000E+00  0.700000E+00  0.100000E+00
     1          8     1     3  0.800000E+00  0.800000E+00  0.100000E+00
     1          9     1     5  0.950000E+00  0.950000E+00  0.150000E+00
     1         10     1     5  0.110000E+01  0.110000E+01  0.150000E+00
     1         11     1     5  0.125000E+01  0.125000E+01  0.150000E+00
     1         12     1     4  0.140000E+01  0.140000E+01  0.150000E+00
     1         13     1     5  0.155000E+01  0.155000E+01  0.150000E+00
     1         14     1     5  0.170000E+01  0.170000E+01  0.150000E+00
     1         15     1     5  0.185000E+01  0.185000E+01  0.150000E+00
     1         16     1     5  0.200000E+01  0.200000E+01  0.150000E+00
     1         17     1     4  0.215000E+01  0.215000E+01  0.150000E+00
     1         18     1     5  0.230000E+01  0.230000E+01  0.150000E+00
     1         19     1     5  0.245000E+01  0.245000E+01  0.150000E+00
     1         20     1     5  0.260000E+01  0.260000E+01  0.150000E+00
     1         21     1     5  0.275000E+01  0.275000E+01  0.150000E+00
     1         22     1     3  0.290000E+01  0.290000E+01  0.150000E+00
     1         23     1     5  0.305000E+01  0.305000E+01  0.150000E+00
     1         24     1     5  0.320000E+01  0.320000E+01  0.150000E+00
     1         25     1     5  0.335000E+01  0.335000E+01  0.150000E+00
     1         26     1     5  0.350000E+01  0.350000E+01  0.150000E+00
     1         27     1     4  0.365000E+01  0.365000E+01  0.150000E+00
     1         28     1     5  0.380000E+01  0.380000E+01  0.150000E+00
     1         29     1     5  0.395000E+01  0.395000E+01  0.150000E+00
     1         30     1     5  0.410000E+01  0.410000E+01  0.150000E+00
     1         31     1     5  0.425000E+01  0.425000E+01  0.150000E+00
     1         32     1     4  0.440000E+01  0.440000E+01  0.150000E+00
     1         33     1     5  0.455000E+01  0.455000E+01  0.150000E+00
     1         34     1     5  0.470000E+01  0.470000E+01  0.150000E+00
     1         35     1     5  0.485000E+01  0.485000E+01  0.150000E+00
     1         36     1     4  0.500000E+01  0.500000E+01  0.150000E+00
     1         37     1     5  0.515000E+01  0.515000E+01  0.150000E+00
     1         38     1     5  0.530000E+01  0.530000E+01  0.150000E+00
     1         39     1     5  0.545000E+01  0.545000E+01  0.150000E+00
     1         40     1     5  0.560000E+01  0.560000E+01  0.150000E+00
     1         41     1     4  0.575000E+01  0.575000E+01  0.150000E+00
     1         42     1     5  0.590000E+01  0.590000E+01  0.150000E+00
     1         43     1     5  0.605000E+01  0.605000E+01  0.150000E+00
     1         44     1     5  0.620000E+01  0.620000E+01  0.150000E+00
     1         45     1     5  0.635000E+01  0.635000E+01  0.150000E+00
     1         46     1     4  0.650000E+01  0.650000E+01  0.150000E+00
     1         47     1     5  0.665000E+01  0.665000E+01  0.150000E+00
     1         48     1     5  0.680000E+01  0.680000E+01  0.150000E+00
     1         49     1     5  0.695000E+01  0.695000E+01  0.150000E+00
     1         50     1     5  0.710000E+01  0.710000E+01  0.150000E+00
     1         51     1     3  0.725000E+01  0.725000E+01  0.150000E+00
     1         52     1     5  0.740000E+01  0.740000E+01  0.150000E+00
     1         53     1     5  0.755000E+01  0.755000E+01  0.150000E+00
     1         54     1     5  0.770000E+01  0.770000E+01  0.150000E+00
     1         55     1     5  0.785000E+01  0.785000E+01  0.150000E+00
     1         56     1     3  0.800000E+01  0.800000E+01  0.150000E+00
     1         57     1     5  0.815000E+01  0.815000E+01  0.150000E+00
     1         58     1     5  0.830000E+01  0.830000E+01  0.150000E+00
     1         59     1     5  0.845000E+01  0.845000E+01  0.150000E+00
     1         60     1     4  0.860000E+01  0.860000E+01  0.150000E+00
     1         61     1     4  0.875000E+01  0.875000E+01  0.150000E+00
     1         62     1     5  0.897500E+01  0.897500E+01  0.225000E+00
     1         63     1     5  0.920000E+01  0.920000E+01  0.225000E+00
     1         64     1     4  0.942500E+01  0.942500E+01  0.225000E+00
     1         65     1     5  0.965000E+01  0.965000E+01  0.225000E+00
     1         66     1     5  0.987500E+01  0.987500E+01  0.225000E+00
     1         67     1     4  0.101000E+02  0.101000E+02  0.225000E+00
     1         68     1     5  0.103250E+02  0.103250E+02  0.225000E+00
     1         69     1     5  0.105500E+02  0.105500E+02  0.225000E+00
     1         70     1     5  0.107750E+02  0.107750E+02  0.225000E+00
     1         71     1     5  0.110000E+02  0.110000E+02  0.225000E+00
     1         72     1     5  0.112250E+02  0.112250E+02  0.225000E+00
     1         73     1     5  0.114500E+02  0.114500E+02  0.225000E+00
     1         74     1     5  0.116750E+02  0.116750E+02  0.225000E+00
     1         75     1     5  0.119000E+02  0.119000E+02  0.225000E+00
     1         76     1     5  0.121250E+02  0.121250E+02  0.225000E+00
     1         77     1     4  0.123500E+02  0.123500E+02  0.225000E+00
     1         78     1     5  0.125750E+02  0.125750E+02  0.225000E+00
     1         79     1     5  0.128000E+02  0.128000E+02  0.225000E+00
     1         80     1     4  0.130250E+02  0.130250E+02  0.225000E+00
     1         81     1     5  0.132500E+02  0.132500E+02  0.225000E+00
     1         82     1     5  0.134750E+02  0.134750E+02  0.225000E+00
     1         83     1     4  0.137000E+02  0.137000E+02  0.225000E+00
     1         84     1     5  0.139250E+02  0.139250E+02  0.225000E+00
     1         85     1     5  0.141500E+02  0.141500E+02  0.225000E+00
     1         86     1     5  0.143750E+02  0.143750E+02  0.225000E+00
     1         87     1     5  0.146000E+02  0.146000E+02  0.225000E+00
     1         88     1     5  0.148250E+02  0.148250E+02  0.225000E+00
     1         89     1     5  0.150500E+02  0.150500E+02  0.225000E+00
     1         90     1     5  0.152750E+02  0.152750E+02  0.225000E+00
     1         91     1     5  0.155000E+02  0.155000E+02  0.225000E+00
     1         92     1     5  0.157250E+02  0.157250E+02  0.225000E+00
     1         93     1     4  0.159500E+02  0.159500E+02  0.225000E+00
     1         94     1     5  0.161750E+02  0.161750E+02  0.225000E+00
     1         95     1     5  0.164000E+02  0.164000E+02  0.225000E+00
     1         96     1     4  0.166250E+02  0.166250E+02  0.225000E+00
     1         97     1     5  0.168500E+02  0.168500E+02  0.225000E+00
     1         98     1     5  0.170750E+02  0.170750E+02  0.225000E+00
     1         99     1     5  0.173000E+02  0.173000E+02  0.225000E+00
     1        100     1     5  0.175250E+02  0.175250E+02  0.225000E+00
     1        101     1     5  0.177500E+02  0.177500E+02  0.225000E+00
     1        102     1     5  0.179750E+02  0.179750E+02  0.225000E+00
     1        103     1     5  0.182000E+02  0.182000E+02  0.225000E+00
     1        104     1     5  0.184250E+02  0.184250E+02  0.225000E+00
     1        105     1     5  0.186500E+02  0.186500E+02  0.225000E+00
     1        106     1     4  0.188750E+02  0.188750E+02  0.225000E+00
     1        107     1     5  0.191000E+02  0.191000E+02  0.225000E+00
     1        108     1     5  0.193250E+02  0.193250E+02  0.225000E+00
     1        109     1     3  0.195500E+02  0.195500E+02  0.225000E+00
     1        110     1     5  0.197750E+02  0.197750E+02  0.225000E+00
     1        111     1     5  0.200000E+02  0.200000E+02  0.225000E+00
     1        112     1     4  0.202250E+02  0.202250E+02  0.225000E+00
     1        113     1     5  0.204500E+02  0.204500E+02  0.225000E+00
     1        114     1     5  0.206750E+02  0.206750E+02  0.225000E+00
     1        115     1     5  0.209000E+02  0.209000E+02  0.225000E+00
     1        116     1     5  0.211250E+02  0.211250E+02  0.225000E+00
     1        117     1     5  0.213500E+02  0.213500E+02  0.225000E+00
     1        118     1     5  0.215750E+02  0.215750E+02  0.225000E+00
     1        119     1     5  0.218000E+02  0.218000E+02  0.225000E+00
     1        120     1     5  0.220250E+02  0.220250E+02  0.225000E+00
     1        121     1     5  0.222500E+02  0.222500E+02  0.225000E+00
     1        122     1     4  0.224750E+02  0.224750E+02  0.225000E+00
     1        123     1     5  0.227000E+02  0.227000E+02  0.225000E+00
     1        124     1     5  0.229250E+02  0.229250E+02  0.225000E+00
     1        125     1     4  0.231500E+02  0.231500E+02  0.225000E+00
     1        126     1     5  0.233750E+02  0.233750E+02  0.225000E+00
     1        127     1     5  0.236000E+02  0.236000E+02  0.225000E+00
     1        128     1     5  0.238250E+02  0.238250E+02  0.225000E+00
     1        129     1     5  0.240500E+02  0.240500E+02  0.225000E+00
     1        130     1     5  0.242750E+02  0.242750E+02  0.225000E+00
     1        131     1     5  0.245000E+02  0.245000E+02  0.225000E+00
     1        132     1     5  0.247250E+02  0.247250E+02  0.225000E+00
     1        133     1     5  0.249500E+02  0.249500E+02  0.225000E+00
     1        134     1     5  0.251750E+02  0.251750E+02  0.225000E+00
     1        135     1     3  0.254000E+02  0.254000E+02  0.225000E+00
     1        136     1     5  0.256250E+02  0.256250E+02  0.225000E+00
     1        137     1     5  0.258500E+02  0.258500E+02  0.225000E+00
     1        138     1     3  0.260750E+02  0.260750E+02  0.225000E+00
     1        139     1     5  0.263000E+02  0.263000E+02  0.225000E+00
     1        140     1     5  0.265250E+02  0.265250E+02  0.225000E+00
     1        141     1     4  0.267500E+02  0.267500E+02  0.225000E+00
     1        142     1     5  0.269750E+02  0.269750E+02  0.225000E+00
     1        143     1     5  0.272000E+02  0.272000E+02  0.225000E+00
     1        144     1     5  0.274250E+02  0.274250E+02  0.225000E+00
     1        145     1     5  0.276500E+02  0.276500E+02  0.225000E+00
     1        146     1     5  0.278750E+02  0.278750E+02  0.225000E+00
     1        147     1     5  0.281000E+02  0.281000E+02  0.225000E+00
     1        148     1     5  0.283250E+02  0.283250E+02  0.225000E+00
     1        149     1     5  0.285500E+02  0.285500E+02  0.225000E+00
     1        150     1     5  0.287750E+02  0.287750E+02  0.225000E+00
     1        151     1     4  0.290000E+02  0.290000E+02  0.225000E+00
     1        152     1     5  0.292250E+02  0.292250E+02  0.225000E+00
     1        153     1     5  0.294500E+02  0.294500E+02  0.225000E+00
     1        154     1     4  0.296750E+02  0.296750E+02  0.225000E+00
     1        155     1     5  0.299000E+02  0.299000E+02  0.225000E+00
     1        156     1     5  0.300000E+02  0.300000E+02  0.100000E+00
