*INCLUDE, INPUT=RegularMesh_OUT.inp
*INCLUDE, INPUT=sFrontFace.dfl
*INCLUDE, INPUT=sBackFace.dfl

*MATERIAL,NAME=Aluminum
*CONDUCTIVITY 
1.6700
*ELASTIC
70E9, 0.35
*EXPANSION
24.0000E-6
*SPECIFIC HEAT
8.9600E+02
*DENSITY
2.7000E+03
*INITIAL CONDITIONS,TYPE=TEMPERATURE
 Nall,300

*BOUNDARY
FixEnd,1
*BOUNDARY
FixEnd,2
*BOUNDARY
FixEnd,3
*BOUNDARY
FixEnd,4
*BOUNDARY
FixEnd,5
*BOUNDARY
FixEnd,6

*SOLID SECTION,MATERIAL=Aluminum,ELSET=Eall

*STEP 
*HEAT TRANSFER,STEADY STATE  
*DFLUX,sBackFace.dfl
*DFLUX,sFrontFace.dfl

*NODE FILE 
NT  
*EL FILE 
HFL
*END STEP

*STEP
*COUPLED TEMPERATURE-DISPLACEMENT, STEADY STATE
1,1
*DFLUX,sBackFace.dfl
*DFLUX,sFrontFace.dfl

*NODE FILE 
NT, U  
*EL FILE 
S, E
*NODE PRINT,NSET=Nall
U
*END STEP


