SUMMARY OF JOB INFORMATION
  STEP      INC     ATT  ITRS     TOT TIME     STEP TIME      INC TIME
     1          1     1     3  0.100000E+00  0.100000E+00  0.100000E+00
     1          2     1     5  0.200000E+00  0.200000E+00  0.100000E+00
     1          3     1     5  0.300000E+00  0.300000E+00  0.100000E+00
     1          4     1     5  0.400000E+00  0.400000E+00  0.100000E+00
     1          5     1     5  0.500000E+00  0.500000E+00  0.100000E+00
     1          6     1     5  0.600000E+00  0.600000E+00  0.100000E+00
     1          7     1     5  0.700000E+00  0.700000E+00  0.100000E+00
     1          8     1     4  0.800000E+00  0.800000E+00  0.100000E+00
     1          9     1     4  0.900000E+00  0.900000E+00  0.100000E+00
     1         10     1     5  0.105000E+01  0.105000E+01  0.150000E+00
     1         11     1     5  0.120000E+01  0.120000E+01  0.150000E+00
     1         12     1     5  0.135000E+01  0.135000E+01  0.150000E+00
     1         13     1     5  0.150000E+01  0.150000E+01  0.150000E+00
     1         14     1     3  0.165000E+01  0.165000E+01  0.150000E+00
     1         15     1     5  0.180000E+01  0.180000E+01  0.150000E+00
     1         16     1     5  0.195000E+01  0.195000E+01  0.150000E+00
     1         17     1     5  0.210000E+01  0.210000E+01  0.150000E+00
     1         18     1     5  0.225000E+01  0.225000E+01  0.150000E+00
     1         19     1     5  0.240000E+01  0.240000E+01  0.150000E+00
     1         20     1     3  0.255000E+01  0.255000E+01  0.150000E+00
     1         21     1     5  0.270000E+01  0.270000E+01  0.150000E+00
     1         22     1     5  0.285000E+01  0.285000E+01  0.150000E+00
     1         23     1     5  0.300000E+01  0.300000E+01  0.150000E+00
     1         24     1     5  0.315000E+01  0.315000E+01  0.150000E+00
     1         25     1     4  0.330000E+01  0.330000E+01  0.150000E+00
     1         26     1     4  0.345000E+01  0.345000E+01  0.150000E+00
     1         27     1     5  0.367500E+01  0.367500E+01  0.225000E+00
     1         28     1     5  0.390000E+01  0.390000E+01  0.225000E+00
     1         29     1     5  0.412500E+01  0.412500E+01  0.225000E+00
     1         30     1     5  0.435000E+01  0.435000E+01  0.225000E+00
     1         31     1     5  0.457500E+01  0.457500E+01  0.225000E+00
     1         32     1     5  0.480000E+01  0.480000E+01  0.225000E+00
     1         33     1     5  0.502500E+01  0.502500E+01  0.225000E+00
     1         34     1     5  0.525000E+01  0.525000E+01  0.225000E+00
     1         35     1     5  0.547500E+01  0.547500E+01  0.225000E+00
     1         36     1     5  0.570000E+01  0.570000E+01  0.225000E+00
     1         37     1     3  0.592500E+01  0.592500E+01  0.225000E+00
     1         38     1     5  0.615000E+01  0.615000E+01  0.225000E+00
     1         39     1     5  0.637500E+01  0.637500E+01  0.225000E+00
     1         40     1     5  0.660000E+01  0.660000E+01  0.225000E+00
     1         41     1     4  0.682500E+01  0.682500E+01  0.225000E+00
     1         42     1     5  0.705000E+01  0.705000E+01  0.225000E+00
     1         43     1     5  0.727500E+01  0.727500E+01  0.225000E+00
     1         44     1     5  0.750000E+01  0.750000E+01  0.225000E+00
     1         45     1     5  0.772500E+01  0.772500E+01  0.225000E+00
     1         46     1     5  0.795000E+01  0.795000E+01  0.225000E+00
     1         47     1     5  0.817500E+01  0.817500E+01  0.225000E+00
     1         48     1     5  0.840000E+01  0.840000E+01  0.225000E+00
     1         49     1     5  0.862500E+01  0.862500E+01  0.225000E+00
     1         50     1     5  0.885000E+01  0.885000E+01  0.225000E+00
     1         51     1     5  0.907500E+01  0.907500E+01  0.225000E+00
     1         52     1     4  0.930000E+01  0.930000E+01  0.225000E+00
     1         53     1     5  0.952500E+01  0.952500E+01  0.225000E+00
     1         54     1     5  0.975000E+01  0.975000E+01  0.225000E+00
     1         55     1     5  0.997500E+01  0.997500E+01  0.225000E+00
     1         56     1     4  0.102000E+02  0.102000E+02  0.225000E+00
     1         57     1     5  0.104250E+02  0.104250E+02  0.225000E+00
     1         58     1     5  0.106500E+02  0.106500E+02  0.225000E+00
     1         59     1     5  0.108750E+02  0.108750E+02  0.225000E+00
     1         60     1     5  0.111000E+02  0.111000E+02  0.225000E+00
     1         61     1     5  0.113250E+02  0.113250E+02  0.225000E+00
     1         62     1     5  0.115500E+02  0.115500E+02  0.225000E+00
     1         63     1     5  0.117750E+02  0.117750E+02  0.225000E+00
     1         64     1     5  0.120000E+02  0.120000E+02  0.225000E+00
     1         65     1     5  0.122250E+02  0.122250E+02  0.225000E+00
     1         66     1     5  0.124500E+02  0.124500E+02  0.225000E+00
     1         67     1     4  0.126750E+02  0.126750E+02  0.225000E+00
     1         68     1     5  0.129000E+02  0.129000E+02  0.225000E+00
     1         69     1     5  0.131250E+02  0.131250E+02  0.225000E+00
     1         70     1     5  0.133500E+02  0.133500E+02  0.225000E+00
     1         71     1     4  0.135750E+02  0.135750E+02  0.225000E+00
     1         72     1     5  0.138000E+02  0.138000E+02  0.225000E+00
     1         73     1     5  0.140250E+02  0.140250E+02  0.225000E+00
     1         74     1     5  0.142500E+02  0.142500E+02  0.225000E+00
     1         75     1     5  0.144750E+02  0.144750E+02  0.225000E+00
     1         76     1     5  0.147000E+02  0.147000E+02  0.225000E+00
     1         77     1     5  0.149250E+02  0.149250E+02  0.225000E+00
     1         78     1     5  0.151500E+02  0.151500E+02  0.225000E+00
     1         79     1     5  0.153750E+02  0.153750E+02  0.225000E+00
     1         80     1     5  0.156000E+02  0.156000E+02  0.225000E+00
     1         81     1     5  0.158250E+02  0.158250E+02  0.225000E+00
     1         82     1     4  0.160500E+02  0.160500E+02  0.225000E+00
     1         83     1     5  0.162750E+02  0.162750E+02  0.225000E+00
     1         84     1     5  0.165000E+02  0.165000E+02  0.225000E+00
     1         85     1     5  0.167250E+02  0.167250E+02  0.225000E+00
     1         86     1     4  0.169500E+02  0.169500E+02  0.225000E+00
     1         87     1     5  0.171750E+02  0.171750E+02  0.225000E+00
     1         88     1     5  0.174000E+02  0.174000E+02  0.225000E+00
     1         89     1     5  0.176250E+02  0.176250E+02  0.225000E+00
     1         90     1     5  0.178500E+02  0.178500E+02  0.225000E+00
     1         91     1     5  0.180750E+02  0.180750E+02  0.225000E+00
     1         92     1     5  0.183000E+02  0.183000E+02  0.225000E+00
     1         93     1     5  0.185250E+02  0.185250E+02  0.225000E+00
     1         94     1     5  0.187500E+02  0.187500E+02  0.225000E+00
     1         95     1     5  0.189750E+02  0.189750E+02  0.225000E+00
     1         96     1     5  0.192000E+02  0.192000E+02  0.225000E+00
     1         97     1     4  0.194250E+02  0.194250E+02  0.225000E+00
     1         98     1     5  0.196500E+02  0.196500E+02  0.225000E+00
     1         99     1     5  0.198750E+02  0.198750E+02  0.225000E+00
     1        100     1     5  0.201000E+02  0.201000E+02  0.225000E+00
     1        101     1     3  0.203250E+02  0.203250E+02  0.225000E+00
     1        102     1     5  0.205500E+02  0.205500E+02  0.225000E+00
     1        103     1     5  0.207750E+02  0.207750E+02  0.225000E+00
     1        104     1     5  0.210000E+02  0.210000E+02  0.225000E+00
     1        105     1     4  0.212250E+02  0.212250E+02  0.225000E+00
     1        106     1     5  0.214500E+02  0.214500E+02  0.225000E+00
     1        107     1     5  0.216750E+02  0.216750E+02  0.225000E+00
     1        108     1     5  0.219000E+02  0.219000E+02  0.225000E+00
     1        109     1     5  0.221250E+02  0.221250E+02  0.225000E+00
     1        110     1     5  0.223500E+02  0.223500E+02  0.225000E+00
     1        111     1     5  0.225750E+02  0.225750E+02  0.225000E+00
     1        112     1     4  0.228000E+02  0.228000E+02  0.225000E+00
     1        113     1     5  0.230250E+02  0.230250E+02  0.225000E+00
     1        114     1     5  0.232500E+02  0.232500E+02  0.225000E+00
     1        115     1     5  0.234750E+02  0.234750E+02  0.225000E+00
     1        116     1     3  0.237000E+02  0.237000E+02  0.225000E+00
     1        117     1     5  0.239250E+02  0.239250E+02  0.225000E+00
     1        118     1     5  0.241500E+02  0.241500E+02  0.225000E+00
     1        119     1     5  0.243750E+02  0.243750E+02  0.225000E+00
     1        120     1     4  0.246000E+02  0.246000E+02  0.225000E+00
     1        121     1     5  0.248250E+02  0.248250E+02  0.225000E+00
     1        122     1     5  0.250500E+02  0.250500E+02  0.225000E+00
     1        123     1     5  0.252750E+02  0.252750E+02  0.225000E+00
     1        124     1     5  0.255000E+02  0.255000E+02  0.225000E+00
     1        125     1     5  0.257250E+02  0.257250E+02  0.225000E+00
     1        126     1     5  0.259500E+02  0.259500E+02  0.225000E+00
     1        127     1     4  0.261750E+02  0.261750E+02  0.225000E+00
     1        128     1     5  0.264000E+02  0.264000E+02  0.225000E+00
     1        129     1     5  0.266250E+02  0.266250E+02  0.225000E+00
     1        130     1     5  0.268500E+02  0.268500E+02  0.225000E+00
     1        131     1     4  0.270750E+02  0.270750E+02  0.225000E+00
     1        132     1     5  0.273000E+02  0.273000E+02  0.225000E+00
     1        133     1     5  0.275250E+02  0.275250E+02  0.225000E+00
     1        134     1     5  0.277500E+02  0.277500E+02  0.225000E+00
     1        135     1     4  0.279750E+02  0.279750E+02  0.225000E+00
     1        136     1     5  0.282000E+02  0.282000E+02  0.225000E+00
     1        137     1     5  0.284250E+02  0.284250E+02  0.225000E+00
     1        138     1     5  0.286500E+02  0.286500E+02  0.225000E+00
     1        139     1     5  0.288750E+02  0.288750E+02  0.225000E+00
     1        140     1     5  0.291000E+02  0.291000E+02  0.225000E+00
     1        141     1     5  0.293250E+02  0.293250E+02  0.225000E+00
     1        142     1     5  0.295500E+02  0.295500E+02  0.225000E+00
     1        143     1     5  0.297750E+02  0.297750E+02  0.225000E+00
     1        144     1     5  0.300000E+02  0.300000E+02  0.225000E+00
