SUMMARY OF JOB INFORMATION
  STEP      INC     ATT  ITRS     TOT TIME     STEP TIME      INC TIME
     1          1     1     3  0.100000E+00  0.100000E+00  0.100000E+00
     1          2     1     3  0.200000E+00  0.200000E+00  0.100000E+00
     1          3     1     3  0.350000E+00  0.350000E+00  0.150000E+00
     1          4     1     3  0.575000E+00  0.575000E+00  0.225000E+00
     1          5     1U   12  0.575000E+00  0.575000E+00  0.337500E+00
     1          5     2     7  0.743750E+00  0.743750E+00  0.168750E+00
     1          6     1     3  0.912500E+00  0.912500E+00  0.168750E+00
     1          7     1     3  0.108125E+01  0.108125E+01  0.168750E+00
     1          8     1     7  0.133437E+01  0.133437E+01  0.253125E+00
     1          9     1     3  0.158750E+01  0.158750E+01  0.253125E+00
     1         10     1     4  0.184062E+01  0.184062E+01  0.253125E+00
     1         11     1     3  0.222031E+01  0.222031E+01  0.379688E+00
     1         12     1     3  0.278984E+01  0.278984E+01  0.569531E+00
     1         13     1U    5  0.278984E+01  0.278984E+01  0.854297E+00
     1         13     2     3  0.300342E+01  0.300342E+01  0.213574E+00
     1         14     1     6  0.321699E+01  0.321699E+01  0.213574E+00
     1         15     1U    5  0.321699E+01  0.321699E+01  0.213574E+00
     1         15     2U    4  0.321699E+01  0.321699E+01  0.533936E-01
     1         15     3     6  0.323034E+01  0.323034E+01  0.133484E-01
     1         16     1     3  0.324369E+01  0.324369E+01  0.133484E-01
     1         17     1     3  0.325704E+01  0.325704E+01  0.133484E-01
     1         18     1     4  0.327706E+01  0.327706E+01  0.200226E-01
     1         19     1     4  0.330709E+01  0.330709E+01  0.300339E-01
     1         20     1     4  0.335214E+01  0.335214E+01  0.450508E-01
     1         21     1     5  0.341972E+01  0.341972E+01  0.675762E-01
     1         22     1     6  0.348730E+01  0.348730E+01  0.675762E-01
     1         23     1     5  0.355487E+01  0.355487E+01  0.675762E-01
     1         24     1     5  0.362245E+01  0.362245E+01  0.675762E-01
     1         25     1     5  0.369003E+01  0.369003E+01  0.675762E-01
     1         26     1     5  0.375760E+01  0.375760E+01  0.675762E-01
     1         27     1     5  0.382518E+01  0.382518E+01  0.675762E-01
     1         28     1     5  0.389275E+01  0.389275E+01  0.675762E-01
     1         29     1     5  0.396033E+01  0.396033E+01  0.675762E-01
     1         30     1     5  0.402791E+01  0.402791E+01  0.675762E-01
     1         31     1     5  0.409548E+01  0.409548E+01  0.675762E-01
     1         32     1     5  0.416306E+01  0.416306E+01  0.675762E-01
     1         33     1     5  0.423064E+01  0.423064E+01  0.675762E-01
     1         34     1     4  0.429821E+01  0.429821E+01  0.675762E-01
     1         35     1     6  0.436579E+01  0.436579E+01  0.675762E-01
     1         36     1U    5  0.436579E+01  0.436579E+01  0.675762E-01
     1         36     2     3  0.438268E+01  0.438268E+01  0.168941E-01
     1         37     1     3  0.439958E+01  0.439958E+01  0.168941E-01
     1         38     1     3  0.442492E+01  0.442492E+01  0.253411E-01
     1         39     1     4  0.446293E+01  0.446293E+01  0.380116E-01
     1         40     1     4  0.451995E+01  0.451995E+01  0.570174E-01
     1         41     1     3  0.460547E+01  0.460547E+01  0.855262E-01
     1         42     1     6  0.473376E+01  0.473376E+01  0.128289E+00
     1         43     1     5  0.486205E+01  0.486205E+01  0.128289E+00
     1         44     1U    5  0.486205E+01  0.486205E+01  0.128289E+00
     1         44     2     5  0.489412E+01  0.489412E+01  0.320723E-01
     1         45     1     4  0.492620E+01  0.492620E+01  0.320723E-01
     1         46     1     4  0.495827E+01  0.495827E+01  0.320723E-01
     1         47     1     4  0.500638E+01  0.500638E+01  0.481085E-01
     1         48     1U    4  0.500638E+01  0.500638E+01  0.721627E-01
     1         48     2     4  0.502442E+01  0.502442E+01  0.180407E-01
     1         49     1     4  0.504246E+01  0.504246E+01  0.180407E-01
     1         50     1     4  0.506952E+01  0.506952E+01  0.270610E-01
     1         51     1     4  0.511011E+01  0.511011E+01  0.405915E-01
     1         52     1     4  0.517100E+01  0.517100E+01  0.608873E-01
     1         53     1     4  0.526233E+01  0.526233E+01  0.913309E-01
     1         54     1     5  0.539932E+01  0.539932E+01  0.136996E+00
     1         55     1     5  0.553632E+01  0.553632E+01  0.136996E+00
     1         56     1     5  0.567332E+01  0.567332E+01  0.136996E+00
     1         57     1     5  0.581031E+01  0.581031E+01  0.136996E+00
     1         58     1U    7  0.581031E+01  0.581031E+01  0.136996E+00
     1         58     2     4  0.584456E+01  0.584456E+01  0.342491E-01
     1         59     1     4  0.587881E+01  0.587881E+01  0.342491E-01
     1         60     1     3  0.593019E+01  0.593019E+01  0.513736E-01
     1         61     1     4  0.600725E+01  0.600725E+01  0.770605E-01
     1         62     1     4  0.612284E+01  0.612284E+01  0.115591E+00
     1         63     1     7  0.629622E+01  0.629622E+01  0.173386E+00
     1         64     1U    5  0.629622E+01  0.629622E+01  0.173386E+00
     1         64     2     4  0.633957E+01  0.633957E+01  0.433465E-01
     1         65     1     4  0.638292E+01  0.638292E+01  0.433465E-01
     1         66     1     7  0.644794E+01  0.644794E+01  0.650198E-01
     1         67     1     4  0.651296E+01  0.651296E+01  0.650198E-01
     1         68     1     4  0.657797E+01  0.657797E+01  0.650198E-01
     1         69     1     4  0.667550E+01  0.667550E+01  0.975296E-01
     1         70     1     5  0.682180E+01  0.682180E+01  0.146294E+00
     1         71     1     5  0.696809E+01  0.696809E+01  0.146294E+00
     1         72     1U    5  0.696809E+01  0.696809E+01  0.146294E+00
     1         72     2     4  0.700467E+01  0.700467E+01  0.365736E-01
     1         73     1     4  0.704124E+01  0.704124E+01  0.365736E-01
     1         74     1     4  0.709610E+01  0.709610E+01  0.548604E-01
     1         75     1     4  0.717839E+01  0.717839E+01  0.822906E-01
     1         76     1     4  0.730183E+01  0.730183E+01  0.123436E+00
     1         77     1     5  0.748698E+01  0.748698E+01  0.185154E+00
     1         78     1     5  0.767214E+01  0.767214E+01  0.185154E+00
     1         79     1     5  0.785729E+01  0.785729E+01  0.185154E+00
     1         80     1U    5  0.785729E+01  0.785729E+01  0.185154E+00
     1         80     2     3  0.790358E+01  0.790358E+01  0.462885E-01
     1         81     1     3  0.794987E+01  0.794987E+01  0.462885E-01
     1         82     1     4  0.801930E+01  0.801930E+01  0.694327E-01
     1         83     1     4  0.812345E+01  0.812345E+01  0.104149E+00
     1         84     1     4  0.827967E+01  0.827967E+01  0.156224E+00
     1         85     1U    5  0.827967E+01  0.827967E+01  0.234335E+00
     1         85     2     4  0.833826E+01  0.833826E+01  0.585839E-01
     1         86     1     4  0.839684E+01  0.839684E+01  0.585839E-01
     1         87     1     4  0.848472E+01  0.848472E+01  0.878758E-01
     1         88     1     4  0.861653E+01  0.861653E+01  0.131814E+00
     1         89     1     5  0.881425E+01  0.881425E+01  0.197721E+00
     1         90     1     5  0.901197E+01  0.901197E+01  0.197721E+00
     1         91     1     5  0.920969E+01  0.920969E+01  0.197721E+00
     1         92     1     6  0.940741E+01  0.940741E+01  0.197721E+00
     1         93     1     5  0.960513E+01  0.960513E+01  0.197721E+00
     1         94     1     5  0.980285E+01  0.980285E+01  0.197721E+00
     1         95     1     5  0.100006E+02  0.100006E+02  0.197721E+00
     1         96     1     5  0.101983E+02  0.101983E+02  0.197721E+00
     1         97     1     4  0.103960E+02  0.103960E+02  0.197721E+00
     1         98     1     4  0.105937E+02  0.105937E+02  0.197721E+00
     1         99     1     5  0.108903E+02  0.108903E+02  0.296581E+00
     1        100     1U    5  0.108903E+02  0.108903E+02  0.296581E+00
     1        100     2     4  0.109645E+02  0.109645E+02  0.741452E-01
     1        101     1     4  0.110386E+02  0.110386E+02  0.741452E-01
     1        102     1     4  0.111498E+02  0.111498E+02  0.111218E+00
     1        103     1     6  0.113166E+02  0.113166E+02  0.166827E+00
     1        104     1     4  0.114835E+02  0.114835E+02  0.166827E+00
     1        105     1     4  0.116503E+02  0.116503E+02  0.166827E+00
     1        106     1     6  0.119005E+02  0.119005E+02  0.250240E+00
     1        107     1     5  0.121508E+02  0.121508E+02  0.250240E+00
     1        108     1     6  0.124010E+02  0.124010E+02  0.250240E+00
     1        109     1U    4  0.124010E+02  0.124010E+02  0.250240E+00
     1        109     2     4  0.124636E+02  0.124636E+02  0.625600E-01
     1        110     1     4  0.125261E+02  0.125261E+02  0.625600E-01
     1        111     1     4  0.126200E+02  0.126200E+02  0.938400E-01
     1        112     1U    5  0.126200E+02  0.126200E+02  0.140760E+00
     1        112     2     5  0.126552E+02  0.126552E+02  0.351900E-01
     1        113     1     4  0.126904E+02  0.126904E+02  0.351900E-01
     1        114     1     3  0.127256E+02  0.127256E+02  0.351900E-01
     1        115     1     4  0.127783E+02  0.127783E+02  0.527850E-01
     1        116     1     4  0.128575E+02  0.128575E+02  0.791775E-01
     1        117     1U    5  0.128575E+02  0.128575E+02  0.118766E+00
     1        117     2     4  0.128872E+02  0.128872E+02  0.296916E-01
     1        118     1     4  0.129169E+02  0.129169E+02  0.296916E-01
     1        119     1     4  0.129614E+02  0.129614E+02  0.445373E-01
     1        120     1     4  0.130282E+02  0.130282E+02  0.668060E-01
     1        121     1U    5  0.130282E+02  0.130282E+02  0.100209E+00
     1        121     2     4  0.130533E+02  0.130533E+02  0.250523E-01
     1        122     1     4  0.130783E+02  0.130783E+02  0.250523E-01
     1        123     1     4  0.131159E+02  0.131159E+02  0.375784E-01
     1        124     1     4  0.131723E+02  0.131723E+02  0.563676E-01
     1        125     1     4  0.132568E+02  0.132568E+02  0.845514E-01
     1        126     1     4  0.133837E+02  0.133837E+02  0.126827E+00
     1        127     1     6  0.135739E+02  0.135739E+02  0.190241E+00
     1        128     1U    5  0.135739E+02  0.135739E+02  0.190241E+00
     1        128     2     4  0.136215E+02  0.136215E+02  0.475601E-01
     1        129     1     4  0.136690E+02  0.136690E+02  0.475601E-01
     1        130     1     4  0.137404E+02  0.137404E+02  0.713402E-01
     1        131     1U    5  0.137404E+02  0.137404E+02  0.107010E+00
     1        131     2     4  0.137671E+02  0.137671E+02  0.267526E-01
     1        132     1     4  0.137939E+02  0.137939E+02  0.267526E-01
     1        133     1     4  0.138340E+02  0.138340E+02  0.401289E-01
     1        134     1     4  0.138942E+02  0.138942E+02  0.601933E-01
     1        135     1     5  0.139845E+02  0.139845E+02  0.902900E-01
     1        136     1     4  0.140748E+02  0.140748E+02  0.902900E-01
     1        137     1     4  0.141651E+02  0.141651E+02  0.902900E-01
     1        138     1     4  0.143005E+02  0.143005E+02  0.135435E+00
     1        139     1     4  0.145037E+02  0.145037E+02  0.203152E+00
     1        140     1     5  0.148084E+02  0.148084E+02  0.304729E+00
     1        141     1     5  0.151131E+02  0.151131E+02  0.304729E+00
     1        142     1     5  0.154178E+02  0.154178E+02  0.304729E+00
     1        143     1     4  0.157226E+02  0.157226E+02  0.304729E+00
     1        144     1     4  0.160273E+02  0.160273E+02  0.304729E+00
     1        145     1U    5  0.160273E+02  0.160273E+02  0.457093E+00
     1        145     2     5  0.161416E+02  0.161416E+02  0.114273E+00
     1        146     1     4  0.162558E+02  0.162558E+02  0.114273E+00
     1        147     1     4  0.163701E+02  0.163701E+02  0.114273E+00
     1        148     1U    6  0.163701E+02  0.163701E+02  0.171410E+00
     1        148     2     5  0.164130E+02  0.164130E+02  0.428525E-01
     1        149     1     4  0.164558E+02  0.164558E+02  0.428525E-01
     1        150     1     5  0.164987E+02  0.164987E+02  0.428525E-01
     1        151     1     4  0.165415E+02  0.165415E+02  0.428525E-01
     1        152     1     3  0.165844E+02  0.165844E+02  0.428525E-01
     1        153     1U    5  0.165844E+02  0.165844E+02  0.642787E-01
     1        153     2     4  0.166005E+02  0.166005E+02  0.160697E-01
     1        154     1     4  0.166165E+02  0.166165E+02  0.160697E-01
     1        155     1     3  0.166406E+02  0.166406E+02  0.241045E-01
     1        156     1     4  0.166768E+02  0.166768E+02  0.361568E-01
     1        157     1     4  0.167310E+02  0.167310E+02  0.542351E-01
     1        158     1     4  0.168124E+02  0.168124E+02  0.813527E-01
     1        159     1U    4  0.168124E+02  0.168124E+02  0.122029E+00
     1        159     2     5  0.168429E+02  0.168429E+02  0.305073E-01
     1        160     1     3  0.168734E+02  0.168734E+02  0.305073E-01
     1        161     1     4  0.169039E+02  0.169039E+02  0.305073E-01
     1        162     1     4  0.169497E+02  0.169497E+02  0.457609E-01
     1        163     1     4  0.170183E+02  0.170183E+02  0.686414E-01
     1        164     1     4  0.171213E+02  0.171213E+02  0.102962E+00
     1        165     1U    5  0.171213E+02  0.171213E+02  0.154443E+00
     1        165     2     4  0.171599E+02  0.171599E+02  0.386108E-01
     1        166     1     3  0.171985E+02  0.171985E+02  0.386108E-01
     1        167     1     3  0.172564E+02  0.172564E+02  0.579161E-01
     1        168     1     4  0.173433E+02  0.173433E+02  0.868742E-01
     1        169     1     4  0.174736E+02  0.174736E+02  0.130311E+00
     1        170     1U    7  0.174736E+02  0.174736E+02  0.195467E+00
     1        170     2     4  0.175224E+02  0.175224E+02  0.488667E-01
     1        171     1     3  0.175713E+02  0.175713E+02  0.488667E-01
     1        172     1     4  0.176446E+02  0.176446E+02  0.733001E-01
     1        173     1     4  0.177546E+02  0.177546E+02  0.109950E+00
     1        174     1     4  0.179195E+02  0.179195E+02  0.164925E+00
     1        175     1U    5  0.179195E+02  0.179195E+02  0.247388E+00
     1        175     2     4  0.179813E+02  0.179813E+02  0.618470E-01
     1        176     1     4  0.180432E+02  0.180432E+02  0.618470E-01
     1        177     1     4  0.181360E+02  0.181360E+02  0.927705E-01
     1        178     1     4  0.182751E+02  0.182751E+02  0.139156E+00
     1        179     1U    5  0.182751E+02  0.182751E+02  0.208734E+00
     1        179     2     4  0.183273E+02  0.183273E+02  0.521834E-01
     1        180     1     4  0.183795E+02  0.183795E+02  0.521834E-01
     1        181     1     4  0.184578E+02  0.184578E+02  0.782751E-01
     1        182     1     4  0.185752E+02  0.185752E+02  0.117413E+00
     1        183     1U    5  0.185752E+02  0.185752E+02  0.176119E+00
     1        183     2U    6  0.185752E+02  0.185752E+02  0.440297E-01
     1        183     3     4  0.185862E+02  0.185862E+02  0.110074E-01
     1        184     1     4  0.185972E+02  0.185972E+02  0.110074E-01
     1        185     1     3  0.186137E+02  0.186137E+02  0.165112E-01
     1        186     1     4  0.186385E+02  0.186385E+02  0.247667E-01
     1        187     1     3  0.186756E+02  0.186756E+02  0.371501E-01
     1        188     1     4  0.187313E+02  0.187313E+02  0.557251E-01
     1        189     1     4  0.188149E+02  0.188149E+02  0.835877E-01
     1        190     1     4  0.189403E+02  0.189403E+02  0.125382E+00
     1        191     1U    5  0.189403E+02  0.189403E+02  0.188072E+00
     1        191     2     4  0.189873E+02  0.189873E+02  0.470181E-01
     1        192     1     4  0.190343E+02  0.190343E+02  0.470181E-01
     1        193     1     4  0.191049E+02  0.191049E+02  0.705271E-01
     1        194     1     4  0.192107E+02  0.192107E+02  0.105791E+00
     1        195     1     4  0.193693E+02  0.193693E+02  0.158686E+00
     1        196     1     4  0.196074E+02  0.196074E+02  0.238029E+00
     1        197     1     5  0.199644E+02  0.199644E+02  0.357044E+00
     1        198     1     6  0.203215E+02  0.203215E+02  0.357044E+00
     1        199     1     4  0.206785E+02  0.206785E+02  0.357044E+00
     1        200     1U    5  0.206785E+02  0.206785E+02  0.357044E+00
     1        200     2     4  0.207678E+02  0.207678E+02  0.892609E-01
     1        201     1     4  0.208570E+02  0.208570E+02  0.892609E-01
     1        202     1     4  0.209909E+02  0.209909E+02  0.133891E+00
     1        203     1     4  0.211918E+02  0.211918E+02  0.200837E+00
     1        204     1U    4  0.211918E+02  0.211918E+02  0.301255E+00
     1        204     2     4  0.212671E+02  0.212671E+02  0.753139E-01
     1        205     1U    5  0.212671E+02  0.212671E+02  0.753139E-01
     1        205     2     3  0.212859E+02  0.212859E+02  0.188285E-01
     1        206     1     3  0.213047E+02  0.213047E+02  0.188285E-01
     1        207     1     4  0.213330E+02  0.213330E+02  0.282427E-01
     1        208     1     4  0.213753E+02  0.213753E+02  0.423641E-01
     1        209     1     3  0.214389E+02  0.214389E+02  0.635461E-01
     1        210     1U    5  0.214389E+02  0.214389E+02  0.953191E-01
     1        210     2     4  0.214627E+02  0.214627E+02  0.238298E-01
     1        211     1     3  0.214865E+02  0.214865E+02  0.238298E-01
     1        212     1     4  0.215223E+02  0.215223E+02  0.357447E-01
     1        213     1     3  0.215759E+02  0.215759E+02  0.536170E-01
     1        214     1     5  0.216563E+02  0.216563E+02  0.804255E-01
     1        215     1U    5  0.216563E+02  0.216563E+02  0.804255E-01
     1        215     2     4  0.216764E+02  0.216764E+02  0.201064E-01
     1        216     1     4  0.216965E+02  0.216965E+02  0.201064E-01
     1        217     1     3  0.217267E+02  0.217267E+02  0.301596E-01
     1        218     1     5  0.217719E+02  0.217719E+02  0.452393E-01
     1        219     1     5  0.218172E+02  0.218172E+02  0.452393E-01
     1        220     1     4  0.218624E+02  0.218624E+02  0.452393E-01
     1        221     1     4  0.219077E+02  0.219077E+02  0.452393E-01
     1        222     1     4  0.219755E+02  0.219755E+02  0.678590E-01
     1        223     1     3  0.220773E+02  0.220773E+02  0.101789E+00
     1        224     1     7  0.222300E+02  0.222300E+02  0.152683E+00
     1        225     1     4  0.223827E+02  0.223827E+02  0.152683E+00
     1        226     1     4  0.225353E+02  0.225353E+02  0.152683E+00
     1        227     1     4  0.227644E+02  0.227644E+02  0.229024E+00
     1        228     1     6  0.231079E+02  0.231079E+02  0.343536E+00
     1        229     1U    5  0.231079E+02  0.231079E+02  0.343536E+00
     1        229     2     4  0.231938E+02  0.231938E+02  0.858841E-01
     1        230     1     4  0.232797E+02  0.232797E+02  0.858841E-01
     1        231     1     4  0.234085E+02  0.234085E+02  0.128826E+00
     1        232     1U    4  0.234085E+02  0.234085E+02  0.193239E+00
     1        232     2     4  0.234568E+02  0.234568E+02  0.483098E-01
     1        233     1     4  0.235051E+02  0.235051E+02  0.483098E-01
     1        234     1     5  0.235776E+02  0.235776E+02  0.724647E-01
     1        235     1     4  0.236501E+02  0.236501E+02  0.724647E-01
     1        236     1     5  0.237225E+02  0.237225E+02  0.724647E-01
     1        237     1     4  0.237950E+02  0.237950E+02  0.724647E-01
     1        238     1     4  0.238674E+02  0.238674E+02  0.724647E-01
     1        239     1     4  0.239761E+02  0.239761E+02  0.108697E+00
     1        240     1     4  0.241392E+02  0.241392E+02  0.163046E+00
     1        241     1     4  0.243838E+02  0.243838E+02  0.244568E+00
     1        242     1     4  0.247506E+02  0.247506E+02  0.366852E+00
     1        243     1     5  0.253009E+02  0.253009E+02  0.550279E+00
     1        244     1     7  0.258512E+02  0.258512E+02  0.550279E+00
     1        245     1     4  0.264014E+02  0.264014E+02  0.550279E+00
     1        246     1     4  0.269517E+02  0.269517E+02  0.550279E+00
     1        247     1U    5  0.269517E+02  0.269517E+02  0.825418E+00
     1        247     2U    5  0.269517E+02  0.269517E+02  0.206355E+00
     1        247     3     4  0.270033E+02  0.270033E+02  0.515886E-01
     1        248     1     4  0.270549E+02  0.270549E+02  0.515886E-01
     1        249     1     4  0.271323E+02  0.271323E+02  0.773829E-01
     1        250     1     5  0.272484E+02  0.272484E+02  0.116074E+00
     1        251     1     4  0.273644E+02  0.273644E+02  0.116074E+00
     1        252     1     4  0.274805E+02  0.274805E+02  0.116074E+00
     1        253     1U    5  0.274805E+02  0.274805E+02  0.174112E+00
     1        253     2     4  0.275240E+02  0.275240E+02  0.435279E-01
     1        254     1     3  0.275676E+02  0.275676E+02  0.435279E-01
     1        255     1     4  0.276329E+02  0.276329E+02  0.652919E-01
     1        256     1     4  0.277308E+02  0.277308E+02  0.979378E-01
     1        257     1     4  0.278777E+02  0.278777E+02  0.146907E+00
     1        258     1     4  0.280981E+02  0.280981E+02  0.220360E+00
     1        259     1U    5  0.280981E+02  0.280981E+02  0.330540E+00
     1        259     2     4  0.281807E+02  0.281807E+02  0.826350E-01
     1        260     1     6  0.282633E+02  0.282633E+02  0.826350E-01
     1        261     1     4  0.283460E+02  0.283460E+02  0.826350E-01
     1        262     1     4  0.284286E+02  0.284286E+02  0.826350E-01
     1        263     1     4  0.285526E+02  0.285526E+02  0.123953E+00
     1        264     1U    5  0.285526E+02  0.285526E+02  0.185929E+00
     1        264     2     4  0.285990E+02  0.285990E+02  0.464822E-01
     1        265     1     4  0.286455E+02  0.286455E+02  0.464822E-01
     1        266     1     4  0.287152E+02  0.287152E+02  0.697233E-01
     1        267     1     4  0.288198E+02  0.288198E+02  0.104585E+00
     1        268     1     4  0.289767E+02  0.289767E+02  0.156877E+00
     1        269     1     4  0.292120E+02  0.292120E+02  0.235316E+00
     1        270     1     4  0.295650E+02  0.295650E+02  0.352974E+00
     1        271     1     4  0.300000E+02  0.300000E+02  0.435009E+00
