SUMMARY OF JOB INFORMATION
  STEP      INC     ATT  ITRS     TOT TIME     STEP TIME      INC TIME
     1          1     1     3  0.100000E+00  0.100000E+00  0.100000E+00
     1          2     1     5  0.200000E+00  0.200000E+00  0.100000E+00
     1          3     1     5  0.300000E+00  0.300000E+00  0.100000E+00
     1          4     1     5  0.400000E+00  0.400000E+00  0.100000E+00
     1          5     1     5  0.500000E+00  0.500000E+00  0.100000E+00
     1          6     1     5  0.600000E+00  0.600000E+00  0.100000E+00
     1          7     1     5  0.700000E+00  0.700000E+00  0.100000E+00
     1          8     1     5  0.800000E+00  0.800000E+00  0.100000E+00
     1          9     1     5  0.900000E+00  0.900000E+00  0.100000E+00
     1         10     1     5  0.100000E+01  0.100000E+01  0.100000E+00
     1         11     1     5  0.110000E+01  0.110000E+01  0.100000E+00
     1         12     1     5  0.120000E+01  0.120000E+01  0.100000E+00
     1         13     1     5  0.130000E+01  0.130000E+01  0.100000E+00
     1         14     1     5  0.140000E+01  0.140000E+01  0.100000E+00
     1         15     1     5  0.150000E+01  0.150000E+01  0.100000E+00
     1         16     1     5  0.160000E+01  0.160000E+01  0.100000E+00
     1         17     1     5  0.170000E+01  0.170000E+01  0.100000E+00
     1         18     1     5  0.180000E+01  0.180000E+01  0.100000E+00
     1         19     1     5  0.190000E+01  0.190000E+01  0.100000E+00
     1         20     1     5  0.200000E+01  0.200000E+01  0.100000E+00
     1         21     1     4  0.210000E+01  0.210000E+01  0.100000E+00
     1         22     1     4  0.220000E+01  0.220000E+01  0.100000E+00
     1         23     1     4  0.235000E+01  0.235000E+01  0.150000E+00
     1         24     1     3  0.257500E+01  0.257500E+01  0.225000E+00
     1         25     1     5  0.291250E+01  0.291250E+01  0.337500E+00
     1         26     1     5  0.325000E+01  0.325000E+01  0.337500E+00
     1         27     1     5  0.358750E+01  0.358750E+01  0.337500E+00
     1         28     1     5  0.392500E+01  0.392500E+01  0.337500E+00
     1         29     1     5  0.426250E+01  0.426250E+01  0.337500E+00
     1         30     1     5  0.460000E+01  0.460000E+01  0.337500E+00
     1         31     1     5  0.493750E+01  0.493750E+01  0.337500E+00
     1         32     1     4  0.527500E+01  0.527500E+01  0.337500E+00
     1         33     1     5  0.561250E+01  0.561250E+01  0.337500E+00
     1         34     1     5  0.595000E+01  0.595000E+01  0.337500E+00
     1         35     1     5  0.628750E+01  0.628750E+01  0.337500E+00
     1         36     1     5  0.662500E+01  0.662500E+01  0.337500E+00
     1         37     1     5  0.696250E+01  0.696250E+01  0.337500E+00
     1         38     1     5  0.730000E+01  0.730000E+01  0.337500E+00
     1         39     1     5  0.763750E+01  0.763750E+01  0.337500E+00
     1         40     1     5  0.797500E+01  0.797500E+01  0.337500E+00
     1         41     1     5  0.831250E+01  0.831250E+01  0.337500E+00
     1         42     1     5  0.865000E+01  0.865000E+01  0.337500E+00
     1         43     1     5  0.898750E+01  0.898750E+01  0.337500E+00
     1         44     1     5  0.932500E+01  0.932500E+01  0.337500E+00
     1         45     1     5  0.966250E+01  0.966250E+01  0.337500E+00
     1         46     1     5  0.100000E+02  0.100000E+02  0.337500E+00
     1         47     1     5  0.103375E+02  0.103375E+02  0.337500E+00
     1         48     1     5  0.106750E+02  0.106750E+02  0.337500E+00
     1         49     1     5  0.110125E+02  0.110125E+02  0.337500E+00
     1         50     1     5  0.113500E+02  0.113500E+02  0.337500E+00
     1         51     1     5  0.116875E+02  0.116875E+02  0.337500E+00
     1         52     1     5  0.120250E+02  0.120250E+02  0.337500E+00
     1         53     1     5  0.123625E+02  0.123625E+02  0.337500E+00
     1         54     1     5  0.127000E+02  0.127000E+02  0.337500E+00
     1         55     1     3  0.130375E+02  0.130375E+02  0.337500E+00
     1         56     1     5  0.133750E+02  0.133750E+02  0.337500E+00
     1         57     1     5  0.137125E+02  0.137125E+02  0.337500E+00
     1         58     1     5  0.140500E+02  0.140500E+02  0.337500E+00
     1         59     1     5  0.143875E+02  0.143875E+02  0.337500E+00
     1         60     1     5  0.147250E+02  0.147250E+02  0.337500E+00
     1         61     1     5  0.150625E+02  0.150625E+02  0.337500E+00
     1         62     1     5  0.154000E+02  0.154000E+02  0.337500E+00
     1         63     1     3  0.157375E+02  0.157375E+02  0.337500E+00
     1         64     1     5  0.160750E+02  0.160750E+02  0.337500E+00
     1         65     1     5  0.164125E+02  0.164125E+02  0.337500E+00
     1         66     1     5  0.167500E+02  0.167500E+02  0.337500E+00
     1         67     1     5  0.170875E+02  0.170875E+02  0.337500E+00
     1         68     1     5  0.174250E+02  0.174250E+02  0.337500E+00
     1         69     1     5  0.177625E+02  0.177625E+02  0.337500E+00
     1         70     1     5  0.181000E+02  0.181000E+02  0.337500E+00
     1         71     1     4  0.184375E+02  0.184375E+02  0.337500E+00
     1         72     1     5  0.187750E+02  0.187750E+02  0.337500E+00
     1         73     1     5  0.191125E+02  0.191125E+02  0.337500E+00
     1         74     1     5  0.194500E+02  0.194500E+02  0.337500E+00
     1         75     1     5  0.197875E+02  0.197875E+02  0.337500E+00
     1         76     1     5  0.201250E+02  0.201250E+02  0.337500E+00
     1         77     1     5  0.204625E+02  0.204625E+02  0.337500E+00
     1         78     1     5  0.208000E+02  0.208000E+02  0.337500E+00
     1         79     1     5  0.211375E+02  0.211375E+02  0.337500E+00
     1         80     1     5  0.214750E+02  0.214750E+02  0.337500E+00
     1         81     1     5  0.218125E+02  0.218125E+02  0.337500E+00
     1         82     1     5  0.221500E+02  0.221500E+02  0.337500E+00
     1         83     1     5  0.224875E+02  0.224875E+02  0.337500E+00
     1         84     1     5  0.228250E+02  0.228250E+02  0.337500E+00
     1         85     1     5  0.231625E+02  0.231625E+02  0.337500E+00
     1         86     1     4  0.235000E+02  0.235000E+02  0.337500E+00
     1         87     1     5  0.238375E+02  0.238375E+02  0.337500E+00
     1         88     1     5  0.241750E+02  0.241750E+02  0.337500E+00
     1         89     1     5  0.245125E+02  0.245125E+02  0.337500E+00
     1         90     1     5  0.248500E+02  0.248500E+02  0.337500E+00
     1         91     1     5  0.251875E+02  0.251875E+02  0.337500E+00
     1         92     1     5  0.255250E+02  0.255250E+02  0.337500E+00
     1         93     1     5  0.258625E+02  0.258625E+02  0.337500E+00
     1         94     1     3  0.262000E+02  0.262000E+02  0.337500E+00
     1         95     1     5  0.265375E+02  0.265375E+02  0.337500E+00
     1         96     1     5  0.268750E+02  0.268750E+02  0.337500E+00
     1         97     1     5  0.272125E+02  0.272125E+02  0.337500E+00
     1         98     1     5  0.275500E+02  0.275500E+02  0.337500E+00
     1         99     1     5  0.278875E+02  0.278875E+02  0.337500E+00
     1        100     1     5  0.282250E+02  0.282250E+02  0.337500E+00
     1        101     1     5  0.285625E+02  0.285625E+02  0.337500E+00
     1        102     1     4  0.289000E+02  0.289000E+02  0.337500E+00
     1        103     1     5  0.292375E+02  0.292375E+02  0.337500E+00
     1        104     1     5  0.295750E+02  0.295750E+02  0.337500E+00
     1        105     1     5  0.299125E+02  0.299125E+02  0.337500E+00
     1        106     1     4  0.300000E+02  0.300000E+02  0.875000E-01
