SUMMARY OF JOB INFORMATION
  STEP      INC     ATT  ITRS     TOT TIME     STEP TIME      INC TIME
     1          1     1     3  0.100000E+00  0.100000E+00  0.100000E+00
     1          2     1     5  0.200000E+00  0.200000E+00  0.100000E+00
     1          3     1     5  0.300000E+00  0.300000E+00  0.100000E+00
     1          4     1     5  0.400000E+00  0.400000E+00  0.100000E+00
     1          5     1     5  0.500000E+00  0.500000E+00  0.100000E+00
     1          6     1     5  0.600000E+00  0.600000E+00  0.100000E+00
     1          7     1     5  0.700000E+00  0.700000E+00  0.100000E+00
     1          8     1     5  0.800000E+00  0.800000E+00  0.100000E+00
     1          9     1     5  0.900000E+00  0.900000E+00  0.100000E+00
     1         10     1     5  0.100000E+01  0.100000E+01  0.100000E+00
     1         11     1     4  0.110000E+01  0.110000E+01  0.100000E+00
     1         12     1     4  0.120000E+01  0.120000E+01  0.100000E+00
     1         13     1     4  0.135000E+01  0.135000E+01  0.150000E+00
     1         14     1     5  0.157500E+01  0.157500E+01  0.225000E+00
     1         15     1     5  0.180000E+01  0.180000E+01  0.225000E+00
     1         16     1     5  0.202500E+01  0.202500E+01  0.225000E+00
     1         17     1     5  0.225000E+01  0.225000E+01  0.225000E+00
     1         18     1     5  0.247500E+01  0.247500E+01  0.225000E+00
     1         19     1     5  0.270000E+01  0.270000E+01  0.225000E+00
     1         20     1     5  0.292500E+01  0.292500E+01  0.225000E+00
     1         21     1     5  0.315000E+01  0.315000E+01  0.225000E+00
     1         22     1     5  0.337500E+01  0.337500E+01  0.225000E+00
     1         23     1     5  0.360000E+01  0.360000E+01  0.225000E+00
     1         24     1     3  0.382500E+01  0.382500E+01  0.225000E+00
     1         25     1     5  0.405000E+01  0.405000E+01  0.225000E+00
     1         26     1     5  0.427500E+01  0.427500E+01  0.225000E+00
     1         27     1     5  0.450000E+01  0.450000E+01  0.225000E+00
     1         28     1     5  0.472500E+01  0.472500E+01  0.225000E+00
     1         29     1     5  0.495000E+01  0.495000E+01  0.225000E+00
     1         30     1     4  0.517500E+01  0.517500E+01  0.225000E+00
     1         31     1     5  0.540000E+01  0.540000E+01  0.225000E+00
     1         32     1     5  0.562500E+01  0.562500E+01  0.225000E+00
     1         33     1     5  0.585000E+01  0.585000E+01  0.225000E+00
     1         34     1     5  0.607500E+01  0.607500E+01  0.225000E+00
     1         35     1     4  0.630000E+01  0.630000E+01  0.225000E+00
     1         36     1     5  0.652500E+01  0.652500E+01  0.225000E+00
     1         37     1     5  0.675000E+01  0.675000E+01  0.225000E+00
     1         38     1     5  0.697500E+01  0.697500E+01  0.225000E+00
     1         39     1     5  0.720000E+01  0.720000E+01  0.225000E+00
     1         40     1     5  0.742500E+01  0.742500E+01  0.225000E+00
     1         41     1     3  0.765000E+01  0.765000E+01  0.225000E+00
     1         42     1     5  0.787500E+01  0.787500E+01  0.225000E+00
     1         43     1     5  0.810000E+01  0.810000E+01  0.225000E+00
     1         44     1     5  0.832500E+01  0.832500E+01  0.225000E+00
     1         45     1     5  0.855000E+01  0.855000E+01  0.225000E+00
     1         46     1     5  0.877500E+01  0.877500E+01  0.225000E+00
     1         47     1     4  0.900000E+01  0.900000E+01  0.225000E+00
     1         48     1     5  0.922500E+01  0.922500E+01  0.225000E+00
     1         49     1     5  0.945000E+01  0.945000E+01  0.225000E+00
     1         50     1     5  0.967500E+01  0.967500E+01  0.225000E+00
     1         51     1     5  0.990000E+01  0.990000E+01  0.225000E+00
     1         52     1     5  0.101250E+02  0.101250E+02  0.225000E+00
     1         53     1     5  0.103500E+02  0.103500E+02  0.225000E+00
     1         54     1     5  0.105750E+02  0.105750E+02  0.225000E+00
     1         55     1     5  0.108000E+02  0.108000E+02  0.225000E+00
     1         56     1     5  0.110250E+02  0.110250E+02  0.225000E+00
     1         57     1     5  0.112500E+02  0.112500E+02  0.225000E+00
     1         58     1     4  0.114750E+02  0.114750E+02  0.225000E+00
     1         59     1     5  0.117000E+02  0.117000E+02  0.225000E+00
     1         60     1     5  0.119250E+02  0.119250E+02  0.225000E+00
     1         61     1     5  0.121500E+02  0.121500E+02  0.225000E+00
     1         62     1     5  0.123750E+02  0.123750E+02  0.225000E+00
     1         63     1     5  0.126000E+02  0.126000E+02  0.225000E+00
     1         64     1     3  0.128250E+02  0.128250E+02  0.225000E+00
     1         65     1     5  0.130500E+02  0.130500E+02  0.225000E+00
     1         66     1     5  0.132750E+02  0.132750E+02  0.225000E+00
     1         67     1     5  0.135000E+02  0.135000E+02  0.225000E+00
     1         68     1     5  0.137250E+02  0.137250E+02  0.225000E+00
     1         69     1     5  0.139500E+02  0.139500E+02  0.225000E+00
     1         70     1     4  0.141750E+02  0.141750E+02  0.225000E+00
     1         71     1     5  0.144000E+02  0.144000E+02  0.225000E+00
     1         72     1     5  0.146250E+02  0.146250E+02  0.225000E+00
     1         73     1     5  0.148500E+02  0.148500E+02  0.225000E+00
     1         74     1     5  0.150750E+02  0.150750E+02  0.225000E+00
     1         75     1     4  0.153000E+02  0.153000E+02  0.225000E+00
     1         76     1     5  0.155250E+02  0.155250E+02  0.225000E+00
     1         77     1     5  0.157500E+02  0.157500E+02  0.225000E+00
     1         78     1     5  0.159750E+02  0.159750E+02  0.225000E+00
     1         79     1     5  0.162000E+02  0.162000E+02  0.225000E+00
     1         80     1     5  0.164250E+02  0.164250E+02  0.225000E+00
     1         81     1     3  0.166500E+02  0.166500E+02  0.225000E+00
     1         82     1     5  0.168750E+02  0.168750E+02  0.225000E+00
     1         83     1     5  0.171000E+02  0.171000E+02  0.225000E+00
     1         84     1     5  0.173250E+02  0.173250E+02  0.225000E+00
     1         85     1     5  0.175500E+02  0.175500E+02  0.225000E+00
     1         86     1     5  0.177750E+02  0.177750E+02  0.225000E+00
     1         87     1     4  0.180000E+02  0.180000E+02  0.225000E+00
     1         88     1     5  0.182250E+02  0.182250E+02  0.225000E+00
     1         89     1     5  0.184500E+02  0.184500E+02  0.225000E+00
     1         90     1     5  0.186750E+02  0.186750E+02  0.225000E+00
     1         91     1     5  0.189000E+02  0.189000E+02  0.225000E+00
     1         92     1     4  0.191250E+02  0.191250E+02  0.225000E+00
     1         93     1     5  0.193500E+02  0.193500E+02  0.225000E+00
     1         94     1     5  0.195750E+02  0.195750E+02  0.225000E+00
     1         95     1     5  0.198000E+02  0.198000E+02  0.225000E+00
     1         96     1     5  0.200250E+02  0.200250E+02  0.225000E+00
     1         97     1     5  0.202500E+02  0.202500E+02  0.225000E+00
     1         98     1     3  0.204750E+02  0.204750E+02  0.225000E+00
     1         99     1     5  0.207000E+02  0.207000E+02  0.225000E+00
     1        100     1     5  0.209250E+02  0.209250E+02  0.225000E+00
     1        101     1     5  0.211500E+02  0.211500E+02  0.225000E+00
     1        102     1     5  0.213750E+02  0.213750E+02  0.225000E+00
     1        103     1     5  0.216000E+02  0.216000E+02  0.225000E+00
     1        104     1     4  0.218250E+02  0.218250E+02  0.225000E+00
     1        105     1     5  0.220500E+02  0.220500E+02  0.225000E+00
     1        106     1     5  0.222750E+02  0.222750E+02  0.225000E+00
     1        107     1     5  0.225000E+02  0.225000E+02  0.225000E+00
     1        108     1     5  0.227250E+02  0.227250E+02  0.225000E+00
     1        109     1     4  0.229500E+02  0.229500E+02  0.225000E+00
     1        110     1     5  0.231750E+02  0.231750E+02  0.225000E+00
     1        111     1     5  0.234000E+02  0.234000E+02  0.225000E+00
     1        112     1     5  0.236250E+02  0.236250E+02  0.225000E+00
     1        113     1     5  0.238500E+02  0.238500E+02  0.225000E+00
     1        114     1     5  0.240750E+02  0.240750E+02  0.225000E+00
     1        115     1     3  0.243000E+02  0.243000E+02  0.225000E+00
     1        116     1     5  0.245250E+02  0.245250E+02  0.225000E+00
     1        117     1     5  0.247500E+02  0.247500E+02  0.225000E+00
     1        118     1     5  0.249750E+02  0.249750E+02  0.225000E+00
     1        119     1     5  0.252000E+02  0.252000E+02  0.225000E+00
     1        120     1     5  0.254250E+02  0.254250E+02  0.225000E+00
     1        121     1     4  0.256500E+02  0.256500E+02  0.225000E+00
     1        122     1     5  0.258750E+02  0.258750E+02  0.225000E+00
     1        123     1     5  0.261000E+02  0.261000E+02  0.225000E+00
     1        124     1     5  0.263250E+02  0.263250E+02  0.225000E+00
     1        125     1     5  0.265500E+02  0.265500E+02  0.225000E+00
     1        126     1     4  0.267750E+02  0.267750E+02  0.225000E+00
     1        127     1     5  0.270000E+02  0.270000E+02  0.225000E+00
     1        128     1     5  0.272250E+02  0.272250E+02  0.225000E+00
     1        129     1     5  0.274500E+02  0.274500E+02  0.225000E+00
     1        130     1     5  0.276750E+02  0.276750E+02  0.225000E+00
     1        131     1     5  0.279000E+02  0.279000E+02  0.225000E+00
     1        132     1     4  0.281250E+02  0.281250E+02  0.225000E+00
     1        133     1     5  0.283500E+02  0.283500E+02  0.225000E+00
     1        134     1     5  0.285750E+02  0.285750E+02  0.225000E+00
     1        135     1     5  0.288000E+02  0.288000E+02  0.225000E+00
     1        136     1     5  0.290250E+02  0.290250E+02  0.225000E+00
     1        137     1     5  0.292500E+02  0.292500E+02  0.225000E+00
     1        138     1     3  0.294750E+02  0.294750E+02  0.225000E+00
     1        139     1     5  0.297000E+02  0.297000E+02  0.225000E+00
     1        140     1     5  0.299250E+02  0.299250E+02  0.225000E+00
     1        141     1     5  0.301500E+02  0.301500E+02  0.225000E+00
     1        142     1     5  0.303750E+02  0.303750E+02  0.225000E+00
     1        143     1     5  0.306000E+02  0.306000E+02  0.225000E+00
     1        144     1     4  0.308250E+02  0.308250E+02  0.225000E+00
     1        145     1     5  0.310500E+02  0.310500E+02  0.225000E+00
     1        146     1     5  0.312750E+02  0.312750E+02  0.225000E+00
     1        147     1     5  0.315000E+02  0.315000E+02  0.225000E+00
     1        148     1     5  0.317250E+02  0.317250E+02  0.225000E+00
     1        149     1     4  0.319500E+02  0.319500E+02  0.225000E+00
     1        150     1     5  0.321750E+02  0.321750E+02  0.225000E+00
     1        151     1     5  0.324000E+02  0.324000E+02  0.225000E+00
     1        152     1     5  0.326250E+02  0.326250E+02  0.225000E+00
     1        153     1     5  0.328500E+02  0.328500E+02  0.225000E+00
     1        154     1     5  0.330750E+02  0.330750E+02  0.225000E+00
     1        155     1     4  0.333000E+02  0.333000E+02  0.225000E+00
     1        156     1     5  0.335250E+02  0.335250E+02  0.225000E+00
     1        157     1     5  0.337500E+02  0.337500E+02  0.225000E+00
     1        158     1     5  0.339750E+02  0.339750E+02  0.225000E+00
     1        159     1     5  0.342000E+02  0.342000E+02  0.225000E+00
     1        160     1     5  0.344250E+02  0.344250E+02  0.225000E+00
     1        161     1     4  0.346500E+02  0.346500E+02  0.225000E+00
     1        162     1     5  0.348750E+02  0.348750E+02  0.225000E+00
     1        163     1     5  0.351000E+02  0.351000E+02  0.225000E+00
     1        164     1     5  0.353250E+02  0.353250E+02  0.225000E+00
     1        165     1     5  0.355500E+02  0.355500E+02  0.225000E+00
     1        166     1     4  0.357750E+02  0.357750E+02  0.225000E+00
     1        167     1     5  0.360000E+02  0.360000E+02  0.225000E+00
     1        168     1     5  0.362250E+02  0.362250E+02  0.225000E+00
     1        169     1     5  0.364500E+02  0.364500E+02  0.225000E+00
     1        170     1     5  0.366750E+02  0.366750E+02  0.225000E+00
     1        171     1     5  0.369000E+02  0.369000E+02  0.225000E+00
     1        172     1     3  0.371250E+02  0.371250E+02  0.225000E+00
     1        173     1     5  0.373500E+02  0.373500E+02  0.225000E+00
     1        174     1     5  0.375750E+02  0.375750E+02  0.225000E+00
     1        175     1     5  0.378000E+02  0.378000E+02  0.225000E+00
     1        176     1     5  0.380250E+02  0.380250E+02  0.225000E+00
     1        177     1     5  0.382500E+02  0.382500E+02  0.225000E+00
     1        178     1     3  0.384750E+02  0.384750E+02  0.225000E+00
     1        179     1     5  0.387000E+02  0.387000E+02  0.225000E+00
     1        180     1     5  0.389250E+02  0.389250E+02  0.225000E+00
     1        181     1     5  0.391500E+02  0.391500E+02  0.225000E+00
     1        182     1     5  0.393750E+02  0.393750E+02  0.225000E+00
     1        183     1     4  0.396000E+02  0.396000E+02  0.225000E+00
     1        184     1     5  0.398250E+02  0.398250E+02  0.225000E+00
     1        185     1     5  0.400500E+02  0.400500E+02  0.225000E+00
     1        186     1     5  0.402750E+02  0.402750E+02  0.225000E+00
     1        187     1     5  0.405000E+02  0.405000E+02  0.225000E+00
     1        188     1     5  0.407250E+02  0.407250E+02  0.225000E+00
     1        189     1     3  0.409500E+02  0.409500E+02  0.225000E+00
     1        190     1     5  0.411750E+02  0.411750E+02  0.225000E+00
     1        191     1     5  0.414000E+02  0.414000E+02  0.225000E+00
     1        192     1     5  0.416250E+02  0.416250E+02  0.225000E+00
     1        193     1     5  0.418500E+02  0.418500E+02  0.225000E+00
     1        194     1     5  0.420750E+02  0.420750E+02  0.225000E+00
     1        195     1     4  0.423000E+02  0.423000E+02  0.225000E+00
     1        196     1     5  0.425250E+02  0.425250E+02  0.225000E+00
     1        197     1     5  0.427500E+02  0.427500E+02  0.225000E+00
     1        198     1     5  0.429750E+02  0.429750E+02  0.225000E+00
     1        199     1     5  0.432000E+02  0.432000E+02  0.225000E+00
     1        200     1     4  0.434250E+02  0.434250E+02  0.225000E+00
     1        201     1     4  0.436500E+02  0.436500E+02  0.225000E+00
     1        202     1     5  0.439875E+02  0.439875E+02  0.337500E+00
     1        203     1     5  0.443250E+02  0.443250E+02  0.337500E+00
     1        204     1     5  0.446625E+02  0.446625E+02  0.337500E+00
     1        205     1     5  0.450000E+02  0.450000E+02  0.337500E+00
     1        206     1     5  0.453375E+02  0.453375E+02  0.337500E+00
     1        207     1     5  0.456750E+02  0.456750E+02  0.337500E+00
     1        208     1     5  0.460125E+02  0.460125E+02  0.337500E+00
     1        209     1     5  0.463500E+02  0.463500E+02  0.337500E+00
     1        210     1     5  0.466875E+02  0.466875E+02  0.337500E+00
     1        211     1     5  0.470250E+02  0.470250E+02  0.337500E+00
     1        212     1     4  0.473625E+02  0.473625E+02  0.337500E+00
     1        213     1     5  0.477000E+02  0.477000E+02  0.337500E+00
     1        214     1     5  0.480375E+02  0.480375E+02  0.337500E+00
     1        215     1     5  0.483750E+02  0.483750E+02  0.337500E+00
     1        216     1     4  0.487125E+02  0.487125E+02  0.337500E+00
     1        217     1     5  0.490500E+02  0.490500E+02  0.337500E+00
     1        218     1     5  0.493875E+02  0.493875E+02  0.337500E+00
     1        219     1     5  0.497250E+02  0.497250E+02  0.337500E+00
     1        220     1     5  0.500625E+02  0.500625E+02  0.337500E+00
     1        221     1     5  0.504000E+02  0.504000E+02  0.337500E+00
     1        222     1     5  0.507375E+02  0.507375E+02  0.337500E+00
     1        223     1     5  0.510750E+02  0.510750E+02  0.337500E+00
     1        224     1     5  0.514125E+02  0.514125E+02  0.337500E+00
     1        225     1     5  0.517500E+02  0.517500E+02  0.337500E+00
     1        226     1     5  0.520875E+02  0.520875E+02  0.337500E+00
     1        227     1     4  0.524250E+02  0.524250E+02  0.337500E+00
     1        228     1     5  0.527625E+02  0.527625E+02  0.337500E+00
     1        229     1     5  0.531000E+02  0.531000E+02  0.337500E+00
     1        230     1     5  0.534375E+02  0.534375E+02  0.337500E+00
     1        231     1     3  0.537750E+02  0.537750E+02  0.337500E+00
     1        232     1     5  0.541125E+02  0.541125E+02  0.337500E+00
     1        233     1     5  0.544500E+02  0.544500E+02  0.337500E+00
     1        234     1     5  0.547875E+02  0.547875E+02  0.337500E+00
     1        235     1     5  0.551250E+02  0.551250E+02  0.337500E+00
     1        236     1     5  0.554625E+02  0.554625E+02  0.337500E+00
     1        237     1     5  0.558000E+02  0.558000E+02  0.337500E+00
     1        238     1     5  0.561375E+02  0.561375E+02  0.337500E+00
     1        239     1     5  0.564750E+02  0.564750E+02  0.337500E+00
     1        240     1     5  0.568125E+02  0.568125E+02  0.337500E+00
     1        241     1     5  0.571500E+02  0.571500E+02  0.337500E+00
     1        242     1     5  0.574875E+02  0.574875E+02  0.337500E+00
     1        243     1     5  0.578250E+02  0.578250E+02  0.337500E+00
     1        244     1     5  0.581625E+02  0.581625E+02  0.337500E+00
     1        245     1     5  0.585000E+02  0.585000E+02  0.337500E+00
     1        246     1     4  0.588375E+02  0.588375E+02  0.337500E+00
     1        247     1     5  0.591750E+02  0.591750E+02  0.337500E+00
     1        248     1     5  0.595125E+02  0.595125E+02  0.337500E+00
     1        249     1     5  0.598500E+02  0.598500E+02  0.337500E+00
     1        250     1     4  0.601875E+02  0.601875E+02  0.337500E+00
     1        251     1     5  0.605250E+02  0.605250E+02  0.337500E+00
     1        252     1     5  0.608625E+02  0.608625E+02  0.337500E+00
     1        253     1     5  0.612000E+02  0.612000E+02  0.337500E+00
     1        254     1     5  0.615375E+02  0.615375E+02  0.337500E+00
     1        255     1     5  0.618750E+02  0.618750E+02  0.337500E+00
     1        256     1     5  0.622125E+02  0.622125E+02  0.337500E+00
     1        257     1     5  0.625500E+02  0.625500E+02  0.337500E+00
     1        258     1     5  0.628875E+02  0.628875E+02  0.337500E+00
     1        259     1     5  0.632250E+02  0.632250E+02  0.337500E+00
     1        260     1     5  0.635625E+02  0.635625E+02  0.337500E+00
     1        261     1     5  0.639000E+02  0.639000E+02  0.337500E+00
     1        262     1     5  0.642375E+02  0.642375E+02  0.337500E+00
     1        263     1     5  0.645750E+02  0.645750E+02  0.337500E+00
     1        264     1     5  0.649125E+02  0.649125E+02  0.337500E+00
     1        265     1     4  0.652500E+02  0.652500E+02  0.337500E+00
     1        266     1     5  0.655875E+02  0.655875E+02  0.337500E+00
     1        267     1     5  0.659250E+02  0.659250E+02  0.337500E+00
     1        268     1     5  0.662625E+02  0.662625E+02  0.337500E+00
     1        269     1     4  0.666000E+02  0.666000E+02  0.337500E+00
     1        270     1     5  0.669375E+02  0.669375E+02  0.337500E+00
     1        271     1     5  0.672750E+02  0.672750E+02  0.337500E+00
     1        272     1     5  0.676125E+02  0.676125E+02  0.337500E+00
     1        273     1     5  0.679500E+02  0.679500E+02  0.337500E+00
     1        274     1     5  0.682875E+02  0.682875E+02  0.337500E+00
     1        275     1     5  0.686250E+02  0.686250E+02  0.337500E+00
     1        276     1     5  0.689625E+02  0.689625E+02  0.337500E+00
     1        277     1     5  0.693000E+02  0.693000E+02  0.337500E+00
     1        278     1     5  0.696375E+02  0.696375E+02  0.337500E+00
     1        279     1     5  0.699750E+02  0.699750E+02  0.337500E+00
     1        280     1     5  0.703125E+02  0.703125E+02  0.337500E+00
     1        281     1     5  0.706500E+02  0.706500E+02  0.337500E+00
     1        282     1     5  0.709875E+02  0.709875E+02  0.337500E+00
     1        283     1     5  0.713250E+02  0.713250E+02  0.337500E+00
     1        284     1     3  0.716625E+02  0.716625E+02  0.337500E+00
     1        285     1     5  0.720000E+02  0.720000E+02  0.337500E+00
     1        286     1     5  0.723375E+02  0.723375E+02  0.337500E+00
     1        287     1     5  0.726750E+02  0.726750E+02  0.337500E+00
     1        288     1     4  0.730125E+02  0.730125E+02  0.337500E+00
     1        289     1     5  0.733500E+02  0.733500E+02  0.337500E+00
     1        290     1     5  0.736875E+02  0.736875E+02  0.337500E+00
     1        291     1     5  0.740250E+02  0.740250E+02  0.337500E+00
     1        292     1     5  0.743625E+02  0.743625E+02  0.337500E+00
     1        293     1     5  0.747000E+02  0.747000E+02  0.337500E+00
     1        294     1     5  0.750375E+02  0.750375E+02  0.337500E+00
     1        295     1     5  0.753750E+02  0.753750E+02  0.337500E+00
     1        296     1     5  0.757125E+02  0.757125E+02  0.337500E+00
     1        297     1     5  0.760500E+02  0.760500E+02  0.337500E+00
     1        298     1     5  0.763875E+02  0.763875E+02  0.337500E+00
     1        299     1     5  0.767250E+02  0.767250E+02  0.337500E+00
     1        300     1     5  0.770625E+02  0.770625E+02  0.337500E+00
     1        301     1     5  0.774000E+02  0.774000E+02  0.337500E+00
     1        302     1     5  0.777375E+02  0.777375E+02  0.337500E+00
     1        303     1     4  0.780750E+02  0.780750E+02  0.337500E+00
     1        304     1     5  0.784125E+02  0.784125E+02  0.337500E+00
     1        305     1     5  0.787500E+02  0.787500E+02  0.337500E+00
     1        306     1     5  0.790875E+02  0.790875E+02  0.337500E+00
     1        307     1     4  0.794250E+02  0.794250E+02  0.337500E+00
     1        308     1     5  0.797625E+02  0.797625E+02  0.337500E+00
     1        309     1     5  0.801000E+02  0.801000E+02  0.337500E+00
     1        310     1     5  0.804375E+02  0.804375E+02  0.337500E+00
     1        311     1     5  0.807750E+02  0.807750E+02  0.337500E+00
     1        312     1     5  0.811125E+02  0.811125E+02  0.337500E+00
     1        313     1     5  0.814500E+02  0.814500E+02  0.337500E+00
     1        314     1     5  0.817875E+02  0.817875E+02  0.337500E+00
     1        315     1     5  0.821250E+02  0.821250E+02  0.337500E+00
     1        316     1     5  0.824625E+02  0.824625E+02  0.337500E+00
     1        317     1     5  0.828000E+02  0.828000E+02  0.337500E+00
     1        318     1     5  0.831375E+02  0.831375E+02  0.337500E+00
     1        319     1     5  0.834750E+02  0.834750E+02  0.337500E+00
     1        320     1     5  0.838125E+02  0.838125E+02  0.337500E+00
     1        321     1     5  0.841500E+02  0.841500E+02  0.337500E+00
     1        322     1     4  0.844875E+02  0.844875E+02  0.337500E+00
     1        323     1     5  0.848250E+02  0.848250E+02  0.337500E+00
     1        324     1     5  0.851625E+02  0.851625E+02  0.337500E+00
     1        325     1     5  0.855000E+02  0.855000E+02  0.337500E+00
     1        326     1     4  0.858375E+02  0.858375E+02  0.337500E+00
     1        327     1     5  0.861750E+02  0.861750E+02  0.337500E+00
     1        328     1     5  0.865125E+02  0.865125E+02  0.337500E+00
     1        329     1     5  0.868500E+02  0.868500E+02  0.337500E+00
     1        330     1     5  0.871875E+02  0.871875E+02  0.337500E+00
     1        331     1     5  0.875250E+02  0.875250E+02  0.337500E+00
     1        332     1     5  0.878625E+02  0.878625E+02  0.337500E+00
     1        333     1     5  0.882000E+02  0.882000E+02  0.337500E+00
     1        334     1     5  0.885375E+02  0.885375E+02  0.337500E+00
     1        335     1     5  0.888750E+02  0.888750E+02  0.337500E+00
     1        336     1     5  0.892125E+02  0.892125E+02  0.337500E+00
     1        337     1     5  0.895500E+02  0.895500E+02  0.337500E+00
     1        338     1     5  0.898875E+02  0.898875E+02  0.337500E+00
     1        339     1     5  0.902250E+02  0.902250E+02  0.337500E+00
     1        340     1     5  0.905625E+02  0.905625E+02  0.337500E+00
     1        341     1     3  0.909000E+02  0.909000E+02  0.337500E+00
     1        342     1     5  0.912375E+02  0.912375E+02  0.337500E+00
     1        343     1     5  0.915750E+02  0.915750E+02  0.337500E+00
     1        344     1     5  0.919125E+02  0.919125E+02  0.337500E+00
     1        345     1     4  0.922500E+02  0.922500E+02  0.337500E+00
     1        346     1     5  0.925875E+02  0.925875E+02  0.337500E+00
     1        347     1     5  0.929250E+02  0.929250E+02  0.337500E+00
     1        348     1     5  0.932625E+02  0.932625E+02  0.337500E+00
     1        349     1     5  0.936000E+02  0.936000E+02  0.337500E+00
     1        350     1     5  0.939375E+02  0.939375E+02  0.337500E+00
     1        351     1     5  0.942750E+02  0.942750E+02  0.337500E+00
     1        352     1     5  0.946125E+02  0.946125E+02  0.337500E+00
     1        353     1     5  0.949500E+02  0.949500E+02  0.337500E+00
     1        354     1     5  0.952875E+02  0.952875E+02  0.337500E+00
     1        355     1     5  0.956250E+02  0.956250E+02  0.337500E+00
     1        356     1     4  0.959625E+02  0.959625E+02  0.337500E+00
     1        357     1     5  0.963000E+02  0.963000E+02  0.337500E+00
     1        358     1     5  0.966375E+02  0.966375E+02  0.337500E+00
     1        359     1     5  0.969750E+02  0.969750E+02  0.337500E+00
     1        360     1     4  0.973125E+02  0.973125E+02  0.337500E+00
     1        361     1     5  0.976500E+02  0.976500E+02  0.337500E+00
     1        362     1     5  0.979875E+02  0.979875E+02  0.337500E+00
     1        363     1     5  0.983250E+02  0.983250E+02  0.337500E+00
     1        364     1     5  0.986625E+02  0.986625E+02  0.337500E+00
     1        365     1     5  0.990000E+02  0.990000E+02  0.337500E+00
     1        366     1     5  0.993375E+02  0.993375E+02  0.337500E+00
     1        367     1     5  0.996750E+02  0.996750E+02  0.337500E+00
     1        368     1     5  0.100012E+03  0.100012E+03  0.337500E+00
     1        369     1     5  0.100350E+03  0.100350E+03  0.337500E+00
     1        370     1     5  0.100687E+03  0.100687E+03  0.337500E+00
     1        371     1     5  0.101025E+03  0.101025E+03  0.337500E+00
     1        372     1     5  0.101362E+03  0.101362E+03  0.337500E+00
     1        373     1     5  0.101700E+03  0.101700E+03  0.337500E+00
     1        374     1     5  0.102037E+03  0.102037E+03  0.337500E+00
     1        375     1     4  0.102375E+03  0.102375E+03  0.337500E+00
     1        376     1     5  0.102712E+03  0.102712E+03  0.337500E+00
     1        377     1     5  0.103050E+03  0.103050E+03  0.337500E+00
     1        378     1     5  0.103387E+03  0.103387E+03  0.337500E+00
     1        379     1     3  0.103725E+03  0.103725E+03  0.337500E+00
     1        380     1     5  0.104062E+03  0.104062E+03  0.337500E+00
     1        381     1     5  0.104400E+03  0.104400E+03  0.337500E+00
     1        382     1     5  0.104737E+03  0.104737E+03  0.337500E+00
     1        383     1     5  0.105075E+03  0.105075E+03  0.337500E+00
     1        384     1     5  0.105412E+03  0.105412E+03  0.337500E+00
     1        385     1     5  0.105750E+03  0.105750E+03  0.337500E+00
     1        386     1     5  0.106087E+03  0.106087E+03  0.337500E+00
     1        387     1     5  0.106425E+03  0.106425E+03  0.337500E+00
     1        388     1     5  0.106762E+03  0.106762E+03  0.337500E+00
     1        389     1     5  0.107100E+03  0.107100E+03  0.337500E+00
     1        390     1     5  0.107437E+03  0.107437E+03  0.337500E+00
     1        391     1     5  0.107775E+03  0.107775E+03  0.337500E+00
     1        392     1     5  0.108112E+03  0.108112E+03  0.337500E+00
     1        393     1     5  0.108450E+03  0.108450E+03  0.337500E+00
     1        394     1     4  0.108787E+03  0.108787E+03  0.337500E+00
     1        395     1     5  0.109125E+03  0.109125E+03  0.337500E+00
     1        396     1     5  0.109462E+03  0.109462E+03  0.337500E+00
     1        397     1     5  0.109800E+03  0.109800E+03  0.337500E+00
     1        398     1     4  0.110137E+03  0.110137E+03  0.337500E+00
     1        399     1     5  0.110475E+03  0.110475E+03  0.337500E+00
     1        400     1     5  0.110812E+03  0.110812E+03  0.337500E+00
     1        401     1     5  0.111150E+03  0.111150E+03  0.337500E+00
     1        402     1     5  0.111487E+03  0.111487E+03  0.337500E+00
     1        403     1     5  0.111825E+03  0.111825E+03  0.337500E+00
     1        404     1     5  0.112162E+03  0.112162E+03  0.337500E+00
     1        405     1     5  0.112500E+03  0.112500E+03  0.337500E+00
     1        406     1     5  0.112837E+03  0.112837E+03  0.337500E+00
     1        407     1     5  0.113175E+03  0.113175E+03  0.337500E+00
     1        408     1     5  0.113512E+03  0.113512E+03  0.337500E+00
     1        409     1     5  0.113850E+03  0.113850E+03  0.337500E+00
     1        410     1     5  0.114187E+03  0.114187E+03  0.337500E+00
     1        411     1     5  0.114525E+03  0.114525E+03  0.337500E+00
     1        412     1     5  0.114862E+03  0.114862E+03  0.337500E+00
     1        413     1     4  0.115200E+03  0.115200E+03  0.337500E+00
     1        414     1     5  0.115537E+03  0.115537E+03  0.337500E+00
     1        415     1     5  0.115875E+03  0.115875E+03  0.337500E+00
     1        416     1     5  0.116212E+03  0.116212E+03  0.337500E+00
     1        417     1     4  0.116550E+03  0.116550E+03  0.337500E+00
     1        418     1     5  0.116887E+03  0.116887E+03  0.337500E+00
     1        419     1     5  0.117225E+03  0.117225E+03  0.337500E+00
     1        420     1     5  0.117562E+03  0.117562E+03  0.337500E+00
     1        421     1     5  0.117900E+03  0.117900E+03  0.337500E+00
     1        422     1     5  0.118237E+03  0.118237E+03  0.337500E+00
     1        423     1     5  0.118575E+03  0.118575E+03  0.337500E+00
     1        424     1     5  0.118912E+03  0.118912E+03  0.337500E+00
     1        425     1     5  0.119250E+03  0.119250E+03  0.337500E+00
     1        426     1     5  0.119587E+03  0.119587E+03  0.337500E+00
     1        427     1     5  0.119925E+03  0.119925E+03  0.337500E+00
     1        428     1     4  0.120000E+03  0.120000E+03  0.750000E-01
