SUMMARY OF JOB INFORMATION
  STEP      INC     ATT  ITRS     TOT TIME     STEP TIME      INC TIME
     1          1     1     3  0.100000E+00  0.100000E+00  0.100000E+00
     1          2     1     5  0.200000E+00  0.200000E+00  0.100000E+00
     1          3     1     5  0.300000E+00  0.300000E+00  0.100000E+00
     1          4     1     5  0.400000E+00  0.400000E+00  0.100000E+00
     1          5     1     5  0.500000E+00  0.500000E+00  0.100000E+00
     1          6     1     5  0.600000E+00  0.600000E+00  0.100000E+00
     1          7     1     5  0.700000E+00  0.700000E+00  0.100000E+00
     1          8     1     4  0.800000E+00  0.800000E+00  0.100000E+00
     1          9     1     5  0.900000E+00  0.900000E+00  0.100000E+00
     1         10     1     5  0.100000E+01  0.100000E+01  0.100000E+00
     1         11     1     3  0.110000E+01  0.110000E+01  0.100000E+00
     1         12     1     5  0.120000E+01  0.120000E+01  0.100000E+00
     1         13     1     5  0.130000E+01  0.130000E+01  0.100000E+00
     1         14     1     4  0.140000E+01  0.140000E+01  0.100000E+00
     1         15     1     5  0.150000E+01  0.150000E+01  0.100000E+00
     1         16     1     5  0.160000E+01  0.160000E+01  0.100000E+00
     1         17     1     5  0.170000E+01  0.170000E+01  0.100000E+00
     1         18     1     5  0.180000E+01  0.180000E+01  0.100000E+00
     1         19     1     4  0.190000E+01  0.190000E+01  0.100000E+00
     1         20     1     5  0.200000E+01  0.200000E+01  0.100000E+00
     1         21     1     5  0.210000E+01  0.210000E+01  0.100000E+00
     1         22     1     4  0.220000E+01  0.220000E+01  0.100000E+00
     1         23     1     5  0.230000E+01  0.230000E+01  0.100000E+00
     1         24     1     5  0.240000E+01  0.240000E+01  0.100000E+00
     1         25     1     4  0.250000E+01  0.250000E+01  0.100000E+00
     1         26     1     5  0.260000E+01  0.260000E+01  0.100000E+00
     1         27     1     4  0.270000E+01  0.270000E+01  0.100000E+00
     1         28     1     5  0.280000E+01  0.280000E+01  0.100000E+00
     1         29     1     5  0.290000E+01  0.290000E+01  0.100000E+00
     1         30     1     4  0.300000E+01  0.300000E+01  0.100000E+00
     1         31     1     5  0.310000E+01  0.310000E+01  0.100000E+00
     1         32     1     5  0.320000E+01  0.320000E+01  0.100000E+00
     1         33     1     4  0.330000E+01  0.330000E+01  0.100000E+00
     1         34     1     5  0.340000E+01  0.340000E+01  0.100000E+00
     1         35     1     5  0.350000E+01  0.350000E+01  0.100000E+00
     1         36     1     4  0.360000E+01  0.360000E+01  0.100000E+00
     1         37     1     5  0.370000E+01  0.370000E+01  0.100000E+00
     1         38     1     4  0.380000E+01  0.380000E+01  0.100000E+00
     1         39     1     4  0.390000E+01  0.390000E+01  0.100000E+00
     1         40     1     5  0.405000E+01  0.405000E+01  0.150000E+00
     1         41     1     5  0.420000E+01  0.420000E+01  0.150000E+00
     1         42     1     5  0.435000E+01  0.435000E+01  0.150000E+00
     1         43     1     5  0.450000E+01  0.450000E+01  0.150000E+00
     1         44     1     4  0.465000E+01  0.465000E+01  0.150000E+00
     1         45     1     5  0.480000E+01  0.480000E+01  0.150000E+00
     1         46     1     4  0.495000E+01  0.495000E+01  0.150000E+00
     1         47     1     5  0.510000E+01  0.510000E+01  0.150000E+00
     1         48     1     5  0.525000E+01  0.525000E+01  0.150000E+00
     1         49     1     5  0.540000E+01  0.540000E+01  0.150000E+00
     1         50     1     5  0.555000E+01  0.555000E+01  0.150000E+00
     1         51     1     5  0.570000E+01  0.570000E+01  0.150000E+00
     1         52     1     5  0.585000E+01  0.585000E+01  0.150000E+00
     1         53     1     5  0.600000E+01  0.600000E+01  0.150000E+00
     1         54     1     5  0.615000E+01  0.615000E+01  0.150000E+00
     1         55     1     4  0.630000E+01  0.630000E+01  0.150000E+00
     1         56     1     5  0.645000E+01  0.645000E+01  0.150000E+00
     1         57     1     4  0.660000E+01  0.660000E+01  0.150000E+00
     1         58     1     5  0.675000E+01  0.675000E+01  0.150000E+00
     1         59     1     4  0.690000E+01  0.690000E+01  0.150000E+00
     1         60     1     5  0.705000E+01  0.705000E+01  0.150000E+00
     1         61     1     5  0.720000E+01  0.720000E+01  0.150000E+00
     1         62     1     5  0.735000E+01  0.735000E+01  0.150000E+00
     1         63     1     5  0.750000E+01  0.750000E+01  0.150000E+00
     1         64     1     5  0.765000E+01  0.765000E+01  0.150000E+00
     1         65     1     5  0.780000E+01  0.780000E+01  0.150000E+00
     1         66     1     4  0.795000E+01  0.795000E+01  0.150000E+00
     1         67     1     5  0.810000E+01  0.810000E+01  0.150000E+00
     1         68     1     4  0.825000E+01  0.825000E+01  0.150000E+00
     1         69     1     5  0.840000E+01  0.840000E+01  0.150000E+00
     1         70     1     4  0.855000E+01  0.855000E+01  0.150000E+00
     1         71     1     5  0.870000E+01  0.870000E+01  0.150000E+00
     1         72     1     5  0.885000E+01  0.885000E+01  0.150000E+00
     1         73     1     5  0.900000E+01  0.900000E+01  0.150000E+00
     1         74     1     5  0.915000E+01  0.915000E+01  0.150000E+00
     1         75     1     5  0.930000E+01  0.930000E+01  0.150000E+00
     1         76     1     5  0.945000E+01  0.945000E+01  0.150000E+00
     1         77     1     4  0.960000E+01  0.960000E+01  0.150000E+00
     1         78     1     5  0.975000E+01  0.975000E+01  0.150000E+00
     1         79     1     4  0.990000E+01  0.990000E+01  0.150000E+00
     1         80     1     5  0.100500E+02  0.100500E+02  0.150000E+00
     1         81     1     5  0.102000E+02  0.102000E+02  0.150000E+00
     1         82     1     5  0.103500E+02  0.103500E+02  0.150000E+00
     1         83     1     5  0.105000E+02  0.105000E+02  0.150000E+00
     1         84     1     5  0.106500E+02  0.106500E+02  0.150000E+00
     1         85     1     5  0.108000E+02  0.108000E+02  0.150000E+00
     1         86     1     4  0.109500E+02  0.109500E+02  0.150000E+00
     1         87     1     5  0.111000E+02  0.111000E+02  0.150000E+00
     1         88     1     4  0.112500E+02  0.112500E+02  0.150000E+00
     1         89     1     5  0.114000E+02  0.114000E+02  0.150000E+00
     1         90     1     4  0.115500E+02  0.115500E+02  0.150000E+00
     1         91     1     5  0.117000E+02  0.117000E+02  0.150000E+00
     1         92     1     5  0.118500E+02  0.118500E+02  0.150000E+00
     1         93     1     5  0.120000E+02  0.120000E+02  0.150000E+00
     1         94     1     5  0.121500E+02  0.121500E+02  0.150000E+00
     1         95     1     5  0.123000E+02  0.123000E+02  0.150000E+00
     1         96     1     5  0.124500E+02  0.124500E+02  0.150000E+00
     1         97     1     4  0.126000E+02  0.126000E+02  0.150000E+00
     1         98     1     5  0.127500E+02  0.127500E+02  0.150000E+00
     1         99     1     4  0.129000E+02  0.129000E+02  0.150000E+00
     1        100     1     5  0.130500E+02  0.130500E+02  0.150000E+00
     1        101     1     4  0.132000E+02  0.132000E+02  0.150000E+00
     1        102     1     5  0.133500E+02  0.133500E+02  0.150000E+00
     1        103     1     5  0.135000E+02  0.135000E+02  0.150000E+00
     1        104     1     5  0.136500E+02  0.136500E+02  0.150000E+00
     1        105     1     5  0.138000E+02  0.138000E+02  0.150000E+00
     1        106     1     5  0.139500E+02  0.139500E+02  0.150000E+00
     1        107     1     5  0.141000E+02  0.141000E+02  0.150000E+00
     1        108     1     4  0.142500E+02  0.142500E+02  0.150000E+00
     1        109     1     5  0.144000E+02  0.144000E+02  0.150000E+00
     1        110     1     4  0.145500E+02  0.145500E+02  0.150000E+00
     1        111     1     5  0.147000E+02  0.147000E+02  0.150000E+00
     1        112     1     4  0.148500E+02  0.148500E+02  0.150000E+00
     1        113     1     5  0.150000E+02  0.150000E+02  0.150000E+00
     1        114     1     5  0.151500E+02  0.151500E+02  0.150000E+00
     1        115     1     5  0.153000E+02  0.153000E+02  0.150000E+00
     1        116     1     5  0.154500E+02  0.154500E+02  0.150000E+00
     1        117     1     5  0.156000E+02  0.156000E+02  0.150000E+00
     1        118     1     5  0.157500E+02  0.157500E+02  0.150000E+00
     1        119     1     4  0.159000E+02  0.159000E+02  0.150000E+00
     1        120     1     5  0.160500E+02  0.160500E+02  0.150000E+00
     1        121     1     4  0.162000E+02  0.162000E+02  0.150000E+00
     1        122     1     5  0.163500E+02  0.163500E+02  0.150000E+00
     1        123     1     4  0.165000E+02  0.165000E+02  0.150000E+00
     1        124     1     5  0.166500E+02  0.166500E+02  0.150000E+00
     1        125     1     5  0.168000E+02  0.168000E+02  0.150000E+00
     1        126     1     5  0.169500E+02  0.169500E+02  0.150000E+00
     1        127     1     5  0.171000E+02  0.171000E+02  0.150000E+00
     1        128     1     5  0.172500E+02  0.172500E+02  0.150000E+00
     1        129     1     5  0.174000E+02  0.174000E+02  0.150000E+00
     1        130     1     4  0.175500E+02  0.175500E+02  0.150000E+00
     1        131     1     5  0.177000E+02  0.177000E+02  0.150000E+00
     1        132     1     4  0.178500E+02  0.178500E+02  0.150000E+00
     1        133     1     5  0.180000E+02  0.180000E+02  0.150000E+00
     1        134     1     4  0.181500E+02  0.181500E+02  0.150000E+00
     1        135     1     5  0.183000E+02  0.183000E+02  0.150000E+00
     1        136     1     5  0.184500E+02  0.184500E+02  0.150000E+00
     1        137     1     5  0.186000E+02  0.186000E+02  0.150000E+00
     1        138     1     5  0.187500E+02  0.187500E+02  0.150000E+00
     1        139     1     5  0.189000E+02  0.189000E+02  0.150000E+00
     1        140     1     5  0.190500E+02  0.190500E+02  0.150000E+00
     1        141     1     4  0.192000E+02  0.192000E+02  0.150000E+00
     1        142     1     5  0.193500E+02  0.193500E+02  0.150000E+00
     1        143     1     4  0.195000E+02  0.195000E+02  0.150000E+00
     1        144     1     5  0.196500E+02  0.196500E+02  0.150000E+00
     1        145     1     4  0.198000E+02  0.198000E+02  0.150000E+00
     1        146     1     5  0.199500E+02  0.199500E+02  0.150000E+00
     1        147     1     5  0.201000E+02  0.201000E+02  0.150000E+00
     1        148     1     5  0.202500E+02  0.202500E+02  0.150000E+00
     1        149     1     5  0.204000E+02  0.204000E+02  0.150000E+00
     1        150     1     5  0.205500E+02  0.205500E+02  0.150000E+00
     1        151     1     5  0.207000E+02  0.207000E+02  0.150000E+00
     1        152     1     4  0.208500E+02  0.208500E+02  0.150000E+00
     1        153     1     5  0.210000E+02  0.210000E+02  0.150000E+00
     1        154     1     4  0.211500E+02  0.211500E+02  0.150000E+00
     1        155     1     5  0.213000E+02  0.213000E+02  0.150000E+00
     1        156     1     4  0.214500E+02  0.214500E+02  0.150000E+00
     1        157     1     5  0.216000E+02  0.216000E+02  0.150000E+00
     1        158     1     5  0.217500E+02  0.217500E+02  0.150000E+00
     1        159     1     5  0.219000E+02  0.219000E+02  0.150000E+00
     1        160     1     5  0.220500E+02  0.220500E+02  0.150000E+00
     1        161     1     5  0.222000E+02  0.222000E+02  0.150000E+00
     1        162     1     5  0.223500E+02  0.223500E+02  0.150000E+00
     1        163     1     4  0.225000E+02  0.225000E+02  0.150000E+00
     1        164     1     5  0.226500E+02  0.226500E+02  0.150000E+00
     1        165     1     4  0.228000E+02  0.228000E+02  0.150000E+00
     1        166     1     5  0.229500E+02  0.229500E+02  0.150000E+00
     1        167     1     4  0.231000E+02  0.231000E+02  0.150000E+00
     1        168     1     5  0.232500E+02  0.232500E+02  0.150000E+00
     1        169     1     5  0.234000E+02  0.234000E+02  0.150000E+00
     1        170     1     5  0.235500E+02  0.235500E+02  0.150000E+00
     1        171     1     5  0.237000E+02  0.237000E+02  0.150000E+00
     1        172     1     5  0.238500E+02  0.238500E+02  0.150000E+00
     1        173     1     5  0.240000E+02  0.240000E+02  0.150000E+00
     1        174     1     4  0.241500E+02  0.241500E+02  0.150000E+00
     1        175     1     5  0.243000E+02  0.243000E+02  0.150000E+00
     1        176     1     4  0.244500E+02  0.244500E+02  0.150000E+00
     1        177     1     5  0.246000E+02  0.246000E+02  0.150000E+00
     1        178     1     4  0.247500E+02  0.247500E+02  0.150000E+00
     1        179     1     5  0.249000E+02  0.249000E+02  0.150000E+00
     1        180     1     5  0.250500E+02  0.250500E+02  0.150000E+00
     1        181     1     5  0.252000E+02  0.252000E+02  0.150000E+00
     1        182     1     5  0.253500E+02  0.253500E+02  0.150000E+00
     1        183     1     4  0.255000E+02  0.255000E+02  0.150000E+00
     1        184     1     5  0.256500E+02  0.256500E+02  0.150000E+00
     1        185     1     4  0.258000E+02  0.258000E+02  0.150000E+00
     1        186     1     5  0.259500E+02  0.259500E+02  0.150000E+00
     1        187     1     4  0.261000E+02  0.261000E+02  0.150000E+00
     1        188     1     5  0.262500E+02  0.262500E+02  0.150000E+00
     1        189     1     4  0.264000E+02  0.264000E+02  0.150000E+00
     1        190     1     5  0.265500E+02  0.265500E+02  0.150000E+00
     1        191     1     5  0.267000E+02  0.267000E+02  0.150000E+00
     1        192     1     5  0.268500E+02  0.268500E+02  0.150000E+00
     1        193     1     5  0.270000E+02  0.270000E+02  0.150000E+00
     1        194     1     4  0.271500E+02  0.271500E+02  0.150000E+00
     1        195     1     5  0.273000E+02  0.273000E+02  0.150000E+00
     1        196     1     4  0.274500E+02  0.274500E+02  0.150000E+00
     1        197     1     5  0.276000E+02  0.276000E+02  0.150000E+00
     1        198     1     4  0.277500E+02  0.277500E+02  0.150000E+00
     1        199     1     5  0.279000E+02  0.279000E+02  0.150000E+00
     1        200     1     4  0.280500E+02  0.280500E+02  0.150000E+00
     1        201     1     5  0.282000E+02  0.282000E+02  0.150000E+00
     1        202     1     5  0.283500E+02  0.283500E+02  0.150000E+00
     1        203     1     5  0.285000E+02  0.285000E+02  0.150000E+00
     1        204     1     5  0.286500E+02  0.286500E+02  0.150000E+00
     1        205     1     4  0.288000E+02  0.288000E+02  0.150000E+00
     1        206     1     5  0.289500E+02  0.289500E+02  0.150000E+00
     1        207     1     4  0.291000E+02  0.291000E+02  0.150000E+00
     1        208     1     5  0.292500E+02  0.292500E+02  0.150000E+00
     1        209     1     4  0.294000E+02  0.294000E+02  0.150000E+00
     1        210     1     5  0.295500E+02  0.295500E+02  0.150000E+00
     1        211     1     4  0.297000E+02  0.297000E+02  0.150000E+00
     1        212     1     5  0.298500E+02  0.298500E+02  0.150000E+00
     1        213     1     5  0.300000E+02  0.300000E+02  0.150000E+00
     1        214     1     5  0.301500E+02  0.301500E+02  0.150000E+00
     1        215     1     5  0.303000E+02  0.303000E+02  0.150000E+00
     1        216     1     4  0.304500E+02  0.304500E+02  0.150000E+00
     1        217     1     5  0.306000E+02  0.306000E+02  0.150000E+00
     1        218     1     4  0.307500E+02  0.307500E+02  0.150000E+00
     1        219     1     5  0.309000E+02  0.309000E+02  0.150000E+00
     1        220     1     4  0.310500E+02  0.310500E+02  0.150000E+00
     1        221     1     5  0.312000E+02  0.312000E+02  0.150000E+00
     1        222     1     4  0.313500E+02  0.313500E+02  0.150000E+00
     1        223     1     5  0.315000E+02  0.315000E+02  0.150000E+00
     1        224     1     5  0.316500E+02  0.316500E+02  0.150000E+00
     1        225     1     5  0.318000E+02  0.318000E+02  0.150000E+00
     1        226     1     5  0.319500E+02  0.319500E+02  0.150000E+00
     1        227     1     4  0.321000E+02  0.321000E+02  0.150000E+00
     1        228     1     5  0.322500E+02  0.322500E+02  0.150000E+00
     1        229     1     4  0.324000E+02  0.324000E+02  0.150000E+00
     1        230     1     5  0.325500E+02  0.325500E+02  0.150000E+00
     1        231     1     4  0.327000E+02  0.327000E+02  0.150000E+00
     1        232     1     5  0.328500E+02  0.328500E+02  0.150000E+00
     1        233     1     4  0.330000E+02  0.330000E+02  0.150000E+00
     1        234     1     5  0.331500E+02  0.331500E+02  0.150000E+00
     1        235     1     5  0.333000E+02  0.333000E+02  0.150000E+00
     1        236     1     5  0.334500E+02  0.334500E+02  0.150000E+00
     1        237     1     5  0.336000E+02  0.336000E+02  0.150000E+00
     1        238     1     4  0.337500E+02  0.337500E+02  0.150000E+00
     1        239     1     5  0.339000E+02  0.339000E+02  0.150000E+00
     1        240     1     4  0.340500E+02  0.340500E+02  0.150000E+00
     1        241     1     5  0.342000E+02  0.342000E+02  0.150000E+00
     1        242     1     4  0.343500E+02  0.343500E+02  0.150000E+00
     1        243     1     5  0.345000E+02  0.345000E+02  0.150000E+00
     1        244     1     4  0.346500E+02  0.346500E+02  0.150000E+00
     1        245     1     5  0.348000E+02  0.348000E+02  0.150000E+00
     1        246     1     5  0.349500E+02  0.349500E+02  0.150000E+00
     1        247     1     5  0.351000E+02  0.351000E+02  0.150000E+00
     1        248     1     5  0.352500E+02  0.352500E+02  0.150000E+00
     1        249     1     4  0.354000E+02  0.354000E+02  0.150000E+00
     1        250     1     5  0.355500E+02  0.355500E+02  0.150000E+00
     1        251     1     4  0.357000E+02  0.357000E+02  0.150000E+00
     1        252     1     5  0.358500E+02  0.358500E+02  0.150000E+00
     1        253     1     4  0.360000E+02  0.360000E+02  0.150000E+00
     1        254     1     5  0.361500E+02  0.361500E+02  0.150000E+00
     1        255     1     4  0.363000E+02  0.363000E+02  0.150000E+00
     1        256     1     5  0.364500E+02  0.364500E+02  0.150000E+00
     1        257     1     5  0.366000E+02  0.366000E+02  0.150000E+00
     1        258     1     5  0.367500E+02  0.367500E+02  0.150000E+00
     1        259     1     5  0.369000E+02  0.369000E+02  0.150000E+00
     1        260     1     4  0.370500E+02  0.370500E+02  0.150000E+00
     1        261     1     5  0.372000E+02  0.372000E+02  0.150000E+00
     1        262     1     4  0.373500E+02  0.373500E+02  0.150000E+00
     1        263     1     5  0.375000E+02  0.375000E+02  0.150000E+00
     1        264     1     4  0.376500E+02  0.376500E+02  0.150000E+00
     1        265     1     5  0.378000E+02  0.378000E+02  0.150000E+00
     1        266     1     5  0.379500E+02  0.379500E+02  0.150000E+00
     1        267     1     5  0.381000E+02  0.381000E+02  0.150000E+00
     1        268     1     5  0.382500E+02  0.382500E+02  0.150000E+00
     1        269     1     5  0.384000E+02  0.384000E+02  0.150000E+00
     1        270     1     5  0.385500E+02  0.385500E+02  0.150000E+00
     1        271     1     4  0.387000E+02  0.387000E+02  0.150000E+00
     1        272     1     5  0.388500E+02  0.388500E+02  0.150000E+00
     1        273     1     4  0.390000E+02  0.390000E+02  0.150000E+00
     1        274     1     5  0.391500E+02  0.391500E+02  0.150000E+00
     1        275     1     4  0.393000E+02  0.393000E+02  0.150000E+00
     1        276     1     5  0.394500E+02  0.394500E+02  0.150000E+00
     1        277     1     5  0.396000E+02  0.396000E+02  0.150000E+00
     1        278     1     5  0.397500E+02  0.397500E+02  0.150000E+00
     1        279     1     5  0.399000E+02  0.399000E+02  0.150000E+00
     1        280     1     5  0.400500E+02  0.400500E+02  0.150000E+00
     1        281     1     5  0.402000E+02  0.402000E+02  0.150000E+00
     1        282     1     4  0.403500E+02  0.403500E+02  0.150000E+00
     1        283     1     5  0.405000E+02  0.405000E+02  0.150000E+00
     1        284     1     4  0.406500E+02  0.406500E+02  0.150000E+00
     1        285     1     5  0.408000E+02  0.408000E+02  0.150000E+00
     1        286     1     4  0.409500E+02  0.409500E+02  0.150000E+00
     1        287     1     5  0.411000E+02  0.411000E+02  0.150000E+00
     1        288     1     5  0.412500E+02  0.412500E+02  0.150000E+00
     1        289     1     5  0.414000E+02  0.414000E+02  0.150000E+00
     1        290     1     5  0.415500E+02  0.415500E+02  0.150000E+00
     1        291     1     4  0.417000E+02  0.417000E+02  0.150000E+00
     1        292     1     5  0.418500E+02  0.418500E+02  0.150000E+00
     1        293     1     4  0.420000E+02  0.420000E+02  0.150000E+00
     1        294     1     5  0.421500E+02  0.421500E+02  0.150000E+00
     1        295     1     4  0.423000E+02  0.423000E+02  0.150000E+00
     1        296     1     5  0.424500E+02  0.424500E+02  0.150000E+00
     1        297     1     4  0.426000E+02  0.426000E+02  0.150000E+00
     1        298     1     5  0.427500E+02  0.427500E+02  0.150000E+00
     1        299     1     5  0.429000E+02  0.429000E+02  0.150000E+00
     1        300     1     5  0.430500E+02  0.430500E+02  0.150000E+00
     1        301     1     5  0.432000E+02  0.432000E+02  0.150000E+00
     1        302     1     4  0.433500E+02  0.433500E+02  0.150000E+00
     1        303     1     5  0.435000E+02  0.435000E+02  0.150000E+00
     1        304     1     4  0.436500E+02  0.436500E+02  0.150000E+00
     1        305     1     5  0.438000E+02  0.438000E+02  0.150000E+00
     1        306     1     4  0.439500E+02  0.439500E+02  0.150000E+00
     1        307     1     5  0.441000E+02  0.441000E+02  0.150000E+00
     1        308     1     4  0.442500E+02  0.442500E+02  0.150000E+00
     1        309     1     5  0.444000E+02  0.444000E+02  0.150000E+00
     1        310     1     5  0.445500E+02  0.445500E+02  0.150000E+00
     1        311     1     5  0.447000E+02  0.447000E+02  0.150000E+00
     1        312     1     5  0.448500E+02  0.448500E+02  0.150000E+00
     1        313     1     4  0.450000E+02  0.450000E+02  0.150000E+00
     1        314     1     5  0.451500E+02  0.451500E+02  0.150000E+00
     1        315     1     4  0.453000E+02  0.453000E+02  0.150000E+00
     1        316     1     5  0.454500E+02  0.454500E+02  0.150000E+00
     1        317     1     4  0.456000E+02  0.456000E+02  0.150000E+00
     1        318     1     5  0.457500E+02  0.457500E+02  0.150000E+00
     1        319     1     4  0.459000E+02  0.459000E+02  0.150000E+00
     1        320     1     5  0.460500E+02  0.460500E+02  0.150000E+00
     1        321     1     5  0.462000E+02  0.462000E+02  0.150000E+00
     1        322     1     5  0.463500E+02  0.463500E+02  0.150000E+00
     1        323     1     5  0.465000E+02  0.465000E+02  0.150000E+00
     1        324     1     4  0.466500E+02  0.466500E+02  0.150000E+00
     1        325     1     5  0.468000E+02  0.468000E+02  0.150000E+00
     1        326     1     4  0.469500E+02  0.469500E+02  0.150000E+00
     1        327     1     5  0.471000E+02  0.471000E+02  0.150000E+00
     1        328     1     4  0.472500E+02  0.472500E+02  0.150000E+00
     1        329     1     5  0.474000E+02  0.474000E+02  0.150000E+00
     1        330     1     4  0.475500E+02  0.475500E+02  0.150000E+00
     1        331     1     5  0.477000E+02  0.477000E+02  0.150000E+00
     1        332     1     5  0.478500E+02  0.478500E+02  0.150000E+00
     1        333     1     5  0.480000E+02  0.480000E+02  0.150000E+00
     1        334     1     5  0.481500E+02  0.481500E+02  0.150000E+00
     1        335     1     4  0.483000E+02  0.483000E+02  0.150000E+00
     1        336     1     5  0.484500E+02  0.484500E+02  0.150000E+00
     1        337     1     4  0.486000E+02  0.486000E+02  0.150000E+00
     1        338     1     5  0.487500E+02  0.487500E+02  0.150000E+00
     1        339     1     4  0.489000E+02  0.489000E+02  0.150000E+00
     1        340     1     5  0.490500E+02  0.490500E+02  0.150000E+00
     1        341     1     4  0.492000E+02  0.492000E+02  0.150000E+00
     1        342     1     5  0.493500E+02  0.493500E+02  0.150000E+00
     1        343     1     5  0.495000E+02  0.495000E+02  0.150000E+00
     1        344     1     5  0.496500E+02  0.496500E+02  0.150000E+00
     1        345     1     5  0.498000E+02  0.498000E+02  0.150000E+00
     1        346     1     4  0.499500E+02  0.499500E+02  0.150000E+00
     1        347     1     5  0.501000E+02  0.501000E+02  0.150000E+00
     1        348     1     4  0.502500E+02  0.502500E+02  0.150000E+00
     1        349     1     5  0.504000E+02  0.504000E+02  0.150000E+00
     1        350     1     4  0.505500E+02  0.505500E+02  0.150000E+00
     1        351     1     5  0.507000E+02  0.507000E+02  0.150000E+00
     1        352     1     4  0.508500E+02  0.508500E+02  0.150000E+00
     1        353     1     5  0.510000E+02  0.510000E+02  0.150000E+00
     1        354     1     5  0.511500E+02  0.511500E+02  0.150000E+00
     1        355     1     5  0.513000E+02  0.513000E+02  0.150000E+00
     1        356     1     5  0.514500E+02  0.514500E+02  0.150000E+00
     1        357     1     4  0.516000E+02  0.516000E+02  0.150000E+00
     1        358     1     5  0.517500E+02  0.517500E+02  0.150000E+00
     1        359     1     4  0.519000E+02  0.519000E+02  0.150000E+00
     1        360     1     5  0.520500E+02  0.520500E+02  0.150000E+00
     1        361     1     4  0.522000E+02  0.522000E+02  0.150000E+00
     1        362     1     5  0.523500E+02  0.523500E+02  0.150000E+00
     1        363     1     4  0.525000E+02  0.525000E+02  0.150000E+00
     1        364     1     5  0.526500E+02  0.526500E+02  0.150000E+00
     1        365     1     5  0.528000E+02  0.528000E+02  0.150000E+00
     1        366     1     5  0.529500E+02  0.529500E+02  0.150000E+00
     1        367     1     5  0.531000E+02  0.531000E+02  0.150000E+00
     1        368     1     4  0.532500E+02  0.532500E+02  0.150000E+00
     1        369     1     5  0.534000E+02  0.534000E+02  0.150000E+00
     1        370     1     4  0.535500E+02  0.535500E+02  0.150000E+00
     1        371     1     5  0.537000E+02  0.537000E+02  0.150000E+00
     1        372     1     4  0.538500E+02  0.538500E+02  0.150000E+00
     1        373     1     5  0.540000E+02  0.540000E+02  0.150000E+00
     1        374     1     4  0.541500E+02  0.541500E+02  0.150000E+00
     1        375     1     5  0.543000E+02  0.543000E+02  0.150000E+00
     1        376     1     5  0.544500E+02  0.544500E+02  0.150000E+00
     1        377     1     5  0.546000E+02  0.546000E+02  0.150000E+00
     1        378     1     5  0.547500E+02  0.547500E+02  0.150000E+00
     1        379     1     4  0.549000E+02  0.549000E+02  0.150000E+00
     1        380     1     5  0.550500E+02  0.550500E+02  0.150000E+00
     1        381     1     4  0.552000E+02  0.552000E+02  0.150000E+00
     1        382     1     5  0.553500E+02  0.553500E+02  0.150000E+00
     1        383     1     4  0.555000E+02  0.555000E+02  0.150000E+00
     1        384     1     5  0.556500E+02  0.556500E+02  0.150000E+00
     1        385     1     4  0.558000E+02  0.558000E+02  0.150000E+00
     1        386     1     5  0.559500E+02  0.559500E+02  0.150000E+00
     1        387     1     5  0.561000E+02  0.561000E+02  0.150000E+00
     1        388     1     5  0.562500E+02  0.562500E+02  0.150000E+00
     1        389     1     5  0.564000E+02  0.564000E+02  0.150000E+00
     1        390     1     4  0.565500E+02  0.565500E+02  0.150000E+00
     1        391     1     5  0.567000E+02  0.567000E+02  0.150000E+00
     1        392     1     4  0.568500E+02  0.568500E+02  0.150000E+00
     1        393     1     5  0.570000E+02  0.570000E+02  0.150000E+00
     1        394     1     4  0.571500E+02  0.571500E+02  0.150000E+00
     1        395     1     5  0.573000E+02  0.573000E+02  0.150000E+00
     1        396     1     4  0.574500E+02  0.574500E+02  0.150000E+00
     1        397     1     5  0.576000E+02  0.576000E+02  0.150000E+00
     1        398     1     5  0.577500E+02  0.577500E+02  0.150000E+00
     1        399     1     5  0.579000E+02  0.579000E+02  0.150000E+00
     1        400     1     5  0.580500E+02  0.580500E+02  0.150000E+00
     1        401     1     4  0.582000E+02  0.582000E+02  0.150000E+00
     1        402     1     5  0.583500E+02  0.583500E+02  0.150000E+00
     1        403     1     4  0.585000E+02  0.585000E+02  0.150000E+00
     1        404     1     5  0.586500E+02  0.586500E+02  0.150000E+00
     1        405     1     4  0.588000E+02  0.588000E+02  0.150000E+00
     1        406     1     5  0.589500E+02  0.589500E+02  0.150000E+00
     1        407     1     5  0.591000E+02  0.591000E+02  0.150000E+00
     1        408     1     5  0.592500E+02  0.592500E+02  0.150000E+00
     1        409     1     5  0.594000E+02  0.594000E+02  0.150000E+00
     1        410     1     5  0.595500E+02  0.595500E+02  0.150000E+00
     1        411     1     5  0.597000E+02  0.597000E+02  0.150000E+00
     1        412     1     4  0.598500E+02  0.598500E+02  0.150000E+00
     1        413     1     5  0.600000E+02  0.600000E+02  0.150000E+00
     1        414     1     4  0.601500E+02  0.601500E+02  0.150000E+00
     1        415     1     5  0.603000E+02  0.603000E+02  0.150000E+00
     1        416     1     4  0.604500E+02  0.604500E+02  0.150000E+00
     1        417     1     5  0.606000E+02  0.606000E+02  0.150000E+00
     1        418     1     5  0.607500E+02  0.607500E+02  0.150000E+00
     1        419     1     5  0.609000E+02  0.609000E+02  0.150000E+00
     1        420     1     5  0.610500E+02  0.610500E+02  0.150000E+00
     1        421     1     4  0.612000E+02  0.612000E+02  0.150000E+00
     1        422     1     5  0.613500E+02  0.613500E+02  0.150000E+00
     1        423     1     4  0.615000E+02  0.615000E+02  0.150000E+00
     1        424     1     5  0.616500E+02  0.616500E+02  0.150000E+00
     1        425     1     4  0.618000E+02  0.618000E+02  0.150000E+00
     1        426     1     5  0.619500E+02  0.619500E+02  0.150000E+00
     1        427     1     4  0.621000E+02  0.621000E+02  0.150000E+00
     1        428     1     5  0.622500E+02  0.622500E+02  0.150000E+00
     1        429     1     5  0.624000E+02  0.624000E+02  0.150000E+00
     1        430     1     5  0.625500E+02  0.625500E+02  0.150000E+00
     1        431     1     5  0.627000E+02  0.627000E+02  0.150000E+00
     1        432     1     4  0.628500E+02  0.628500E+02  0.150000E+00
     1        433     1     5  0.630000E+02  0.630000E+02  0.150000E+00
     1        434     1     4  0.631500E+02  0.631500E+02  0.150000E+00
     1        435     1     5  0.633000E+02  0.633000E+02  0.150000E+00
     1        436     1     4  0.634500E+02  0.634500E+02  0.150000E+00
     1        437     1     5  0.636000E+02  0.636000E+02  0.150000E+00
     1        438     1     4  0.637500E+02  0.637500E+02  0.150000E+00
     1        439     1     5  0.639000E+02  0.639000E+02  0.150000E+00
     1        440     1     5  0.640500E+02  0.640500E+02  0.150000E+00
     1        441     1     5  0.642000E+02  0.642000E+02  0.150000E+00
     1        442     1     5  0.643500E+02  0.643500E+02  0.150000E+00
     1        443     1     4  0.645000E+02  0.645000E+02  0.150000E+00
     1        444     1     5  0.646500E+02  0.646500E+02  0.150000E+00
     1        445     1     4  0.648000E+02  0.648000E+02  0.150000E+00
     1        446     1     5  0.649500E+02  0.649500E+02  0.150000E+00
     1        447     1     4  0.651000E+02  0.651000E+02  0.150000E+00
     1        448     1     5  0.652500E+02  0.652500E+02  0.150000E+00
     1        449     1     4  0.654000E+02  0.654000E+02  0.150000E+00
     1        450     1     5  0.655500E+02  0.655500E+02  0.150000E+00
     1        451     1     5  0.657000E+02  0.657000E+02  0.150000E+00
     1        452     1     5  0.658500E+02  0.658500E+02  0.150000E+00
     1        453     1     5  0.660000E+02  0.660000E+02  0.150000E+00
     1        454     1     4  0.661500E+02  0.661500E+02  0.150000E+00
     1        455     1     5  0.663000E+02  0.663000E+02  0.150000E+00
     1        456     1     4  0.664500E+02  0.664500E+02  0.150000E+00
     1        457     1     5  0.666000E+02  0.666000E+02  0.150000E+00
     1        458     1     4  0.667500E+02  0.667500E+02  0.150000E+00
     1        459     1     5  0.669000E+02  0.669000E+02  0.150000E+00
     1        460     1     4  0.670500E+02  0.670500E+02  0.150000E+00
     1        461     1     5  0.672000E+02  0.672000E+02  0.150000E+00
     1        462     1     5  0.673500E+02  0.673500E+02  0.150000E+00
     1        463     1     5  0.675000E+02  0.675000E+02  0.150000E+00
     1        464     1     5  0.676500E+02  0.676500E+02  0.150000E+00
     1        465     1     4  0.678000E+02  0.678000E+02  0.150000E+00
     1        466     1     5  0.679500E+02  0.679500E+02  0.150000E+00
     1        467     1     4  0.681000E+02  0.681000E+02  0.150000E+00
     1        468     1     5  0.682500E+02  0.682500E+02  0.150000E+00
     1        469     1     4  0.684000E+02  0.684000E+02  0.150000E+00
     1        470     1     5  0.685500E+02  0.685500E+02  0.150000E+00
     1        471     1     4  0.687000E+02  0.687000E+02  0.150000E+00
     1        472     1     5  0.688500E+02  0.688500E+02  0.150000E+00
     1        473     1     5  0.690000E+02  0.690000E+02  0.150000E+00
     1        474     1     5  0.691500E+02  0.691500E+02  0.150000E+00
     1        475     1     5  0.693000E+02  0.693000E+02  0.150000E+00
     1        476     1     4  0.694500E+02  0.694500E+02  0.150000E+00
     1        477     1     5  0.696000E+02  0.696000E+02  0.150000E+00
     1        478     1     4  0.697500E+02  0.697500E+02  0.150000E+00
     1        479     1     5  0.699000E+02  0.699000E+02  0.150000E+00
     1        480     1     4  0.700500E+02  0.700500E+02  0.150000E+00
     1        481     1     5  0.702000E+02  0.702000E+02  0.150000E+00
     1        482     1     4  0.703500E+02  0.703500E+02  0.150000E+00
     1        483     1     5  0.705000E+02  0.705000E+02  0.150000E+00
     1        484     1     5  0.706500E+02  0.706500E+02  0.150000E+00
     1        485     1     5  0.708000E+02  0.708000E+02  0.150000E+00
     1        486     1     5  0.709500E+02  0.709500E+02  0.150000E+00
     1        487     1     4  0.711000E+02  0.711000E+02  0.150000E+00
     1        488     1     5  0.712500E+02  0.712500E+02  0.150000E+00
     1        489     1     4  0.714000E+02  0.714000E+02  0.150000E+00
     1        490     1     5  0.715500E+02  0.715500E+02  0.150000E+00
     1        491     1     4  0.717000E+02  0.717000E+02  0.150000E+00
     1        492     1     5  0.718500E+02  0.718500E+02  0.150000E+00
     1        493     1     4  0.720000E+02  0.720000E+02  0.150000E+00
     1        494     1     5  0.721500E+02  0.721500E+02  0.150000E+00
     1        495     1     5  0.723000E+02  0.723000E+02  0.150000E+00
     1        496     1     5  0.724500E+02  0.724500E+02  0.150000E+00
     1        497     1     5  0.726000E+02  0.726000E+02  0.150000E+00
     1        498     1     4  0.727500E+02  0.727500E+02  0.150000E+00
     1        499     1     5  0.729000E+02  0.729000E+02  0.150000E+00
     1        500     1     4  0.730500E+02  0.730500E+02  0.150000E+00
     1        501     1     5  0.732000E+02  0.732000E+02  0.150000E+00
     1        502     1     4  0.733500E+02  0.733500E+02  0.150000E+00
     1        503     1     5  0.735000E+02  0.735000E+02  0.150000E+00
     1        504     1     4  0.736500E+02  0.736500E+02  0.150000E+00
     1        505     1     5  0.738000E+02  0.738000E+02  0.150000E+00
     1        506     1     5  0.739500E+02  0.739500E+02  0.150000E+00
     1        507     1     5  0.741000E+02  0.741000E+02  0.150000E+00
     1        508     1     5  0.742500E+02  0.742500E+02  0.150000E+00
     1        509     1     4  0.744000E+02  0.744000E+02  0.150000E+00
     1        510     1     5  0.745500E+02  0.745500E+02  0.150000E+00
     1        511     1     4  0.747000E+02  0.747000E+02  0.150000E+00
     1        512     1     5  0.748500E+02  0.748500E+02  0.150000E+00
     1        513     1     4  0.750000E+02  0.750000E+02  0.150000E+00
     1        514     1     5  0.751500E+02  0.751500E+02  0.150000E+00
     1        515     1     4  0.753000E+02  0.753000E+02  0.150000E+00
     1        516     1     5  0.754500E+02  0.754500E+02  0.150000E+00
     1        517     1     5  0.756000E+02  0.756000E+02  0.150000E+00
     1        518     1     5  0.757500E+02  0.757500E+02  0.150000E+00
     1        519     1     5  0.759000E+02  0.759000E+02  0.150000E+00
     1        520     1     4  0.760500E+02  0.760500E+02  0.150000E+00
     1        521     1     5  0.762000E+02  0.762000E+02  0.150000E+00
     1        522     1     4  0.763500E+02  0.763500E+02  0.150000E+00
     1        523     1     5  0.765000E+02  0.765000E+02  0.150000E+00
     1        524     1     4  0.766500E+02  0.766500E+02  0.150000E+00
     1        525     1     5  0.768000E+02  0.768000E+02  0.150000E+00
     1        526     1     4  0.769500E+02  0.769500E+02  0.150000E+00
     1        527     1     5  0.771000E+02  0.771000E+02  0.150000E+00
     1        528     1     5  0.772500E+02  0.772500E+02  0.150000E+00
     1        529     1     5  0.774000E+02  0.774000E+02  0.150000E+00
     1        530     1     5  0.775500E+02  0.775500E+02  0.150000E+00
     1        531     1     4  0.777000E+02  0.777000E+02  0.150000E+00
     1        532     1     5  0.778500E+02  0.778500E+02  0.150000E+00
     1        533     1     4  0.780000E+02  0.780000E+02  0.150000E+00
     1        534     1     5  0.781500E+02  0.781500E+02  0.150000E+00
     1        535     1     4  0.783000E+02  0.783000E+02  0.150000E+00
     1        536     1     5  0.784500E+02  0.784500E+02  0.150000E+00
     1        537     1     4  0.786000E+02  0.786000E+02  0.150000E+00
     1        538     1     5  0.787500E+02  0.787500E+02  0.150000E+00
     1        539     1     5  0.789000E+02  0.789000E+02  0.150000E+00
     1        540     1     5  0.790500E+02  0.790500E+02  0.150000E+00
     1        541     1     5  0.792000E+02  0.792000E+02  0.150000E+00
     1        542     1     4  0.793500E+02  0.793500E+02  0.150000E+00
     1        543     1     5  0.795000E+02  0.795000E+02  0.150000E+00
     1        544     1     4  0.796500E+02  0.796500E+02  0.150000E+00
     1        545     1     5  0.798000E+02  0.798000E+02  0.150000E+00
     1        546     1     4  0.799500E+02  0.799500E+02  0.150000E+00
     1        547     1     5  0.801000E+02  0.801000E+02  0.150000E+00
     1        548     1     5  0.802500E+02  0.802500E+02  0.150000E+00
     1        549     1     5  0.804000E+02  0.804000E+02  0.150000E+00
     1        550     1     5  0.805500E+02  0.805500E+02  0.150000E+00
     1        551     1     4  0.807000E+02  0.807000E+02  0.150000E+00
     1        552     1     5  0.808500E+02  0.808500E+02  0.150000E+00
     1        553     1     4  0.810000E+02  0.810000E+02  0.150000E+00
     1        554     1     5  0.811500E+02  0.811500E+02  0.150000E+00
     1        555     1     4  0.813000E+02  0.813000E+02  0.150000E+00
     1        556     1     5  0.814500E+02  0.814500E+02  0.150000E+00
     1        557     1     4  0.816000E+02  0.816000E+02  0.150000E+00
     1        558     1     5  0.817500E+02  0.817500E+02  0.150000E+00
     1        559     1     5  0.819000E+02  0.819000E+02  0.150000E+00
     1        560     1     5  0.820500E+02  0.820500E+02  0.150000E+00
     1        561     1     5  0.822000E+02  0.822000E+02  0.150000E+00
     1        562     1     4  0.823500E+02  0.823500E+02  0.150000E+00
     1        563     1     5  0.825000E+02  0.825000E+02  0.150000E+00
     1        564     1     4  0.826500E+02  0.826500E+02  0.150000E+00
     1        565     1     5  0.828000E+02  0.828000E+02  0.150000E+00
     1        566     1     4  0.829500E+02  0.829500E+02  0.150000E+00
     1        567     1     5  0.831000E+02  0.831000E+02  0.150000E+00
     1        568     1     4  0.832500E+02  0.832500E+02  0.150000E+00
     1        569     1     5  0.834000E+02  0.834000E+02  0.150000E+00
     1        570     1     5  0.835500E+02  0.835500E+02  0.150000E+00
     1        571     1     5  0.837000E+02  0.837000E+02  0.150000E+00
     1        572     1     5  0.838500E+02  0.838500E+02  0.150000E+00
     1        573     1     4  0.840000E+02  0.840000E+02  0.150000E+00
     1        574     1     5  0.841500E+02  0.841500E+02  0.150000E+00
     1        575     1     4  0.843000E+02  0.843000E+02  0.150000E+00
     1        576     1     5  0.844500E+02  0.844500E+02  0.150000E+00
     1        577     1     4  0.846000E+02  0.846000E+02  0.150000E+00
     1        578     1     5  0.847500E+02  0.847500E+02  0.150000E+00
     1        579     1     4  0.849000E+02  0.849000E+02  0.150000E+00
     1        580     1     5  0.850500E+02  0.850500E+02  0.150000E+00
     1        581     1     5  0.852000E+02  0.852000E+02  0.150000E+00
     1        582     1     5  0.853500E+02  0.853500E+02  0.150000E+00
     1        583     1     5  0.855000E+02  0.855000E+02  0.150000E+00
     1        584     1     4  0.856500E+02  0.856500E+02  0.150000E+00
     1        585     1     5  0.858000E+02  0.858000E+02  0.150000E+00
     1        586     1     4  0.859500E+02  0.859500E+02  0.150000E+00
     1        587     1     5  0.861000E+02  0.861000E+02  0.150000E+00
     1        588     1     4  0.862500E+02  0.862500E+02  0.150000E+00
     1        589     1     5  0.864000E+02  0.864000E+02  0.150000E+00
     1        590     1     4  0.865500E+02  0.865500E+02  0.150000E+00
     1        591     1     5  0.867000E+02  0.867000E+02  0.150000E+00
     1        592     1     5  0.868500E+02  0.868500E+02  0.150000E+00
     1        593     1     5  0.870000E+02  0.870000E+02  0.150000E+00
     1        594     1     5  0.871500E+02  0.871500E+02  0.150000E+00
     1        595     1     4  0.873000E+02  0.873000E+02  0.150000E+00
     1        596     1     5  0.874500E+02  0.874500E+02  0.150000E+00
     1        597     1     4  0.876000E+02  0.876000E+02  0.150000E+00
     1        598     1     5  0.877500E+02  0.877500E+02  0.150000E+00
     1        599     1     4  0.879000E+02  0.879000E+02  0.150000E+00
     1        600     1     5  0.880500E+02  0.880500E+02  0.150000E+00
     1        601     1     4  0.882000E+02  0.882000E+02  0.150000E+00
     1        602     1     5  0.883500E+02  0.883500E+02  0.150000E+00
     1        603     1     5  0.885000E+02  0.885000E+02  0.150000E+00
     1        604     1     5  0.886500E+02  0.886500E+02  0.150000E+00
     1        605     1     5  0.888000E+02  0.888000E+02  0.150000E+00
     1        606     1     4  0.889500E+02  0.889500E+02  0.150000E+00
     1        607     1     5  0.891000E+02  0.891000E+02  0.150000E+00
     1        608     1     4  0.892500E+02  0.892500E+02  0.150000E+00
     1        609     1     5  0.894000E+02  0.894000E+02  0.150000E+00
     1        610     1     4  0.895500E+02  0.895500E+02  0.150000E+00
     1        611     1     5  0.897000E+02  0.897000E+02  0.150000E+00
     1        612     1     4  0.898500E+02  0.898500E+02  0.150000E+00
     1        613     1     5  0.900000E+02  0.900000E+02  0.150000E+00
     1        614     1     5  0.901500E+02  0.901500E+02  0.150000E+00
     1        615     1     5  0.903000E+02  0.903000E+02  0.150000E+00
     1        616     1     5  0.904500E+02  0.904500E+02  0.150000E+00
     1        617     1     4  0.906000E+02  0.906000E+02  0.150000E+00
     1        618     1     5  0.907500E+02  0.907500E+02  0.150000E+00
     1        619     1     4  0.909000E+02  0.909000E+02  0.150000E+00
     1        620     1     5  0.910500E+02  0.910500E+02  0.150000E+00
     1        621     1     4  0.912000E+02  0.912000E+02  0.150000E+00
     1        622     1     5  0.913500E+02  0.913500E+02  0.150000E+00
     1        623     1     4  0.915000E+02  0.915000E+02  0.150000E+00
     1        624     1     5  0.916500E+02  0.916500E+02  0.150000E+00
     1        625     1     5  0.918000E+02  0.918000E+02  0.150000E+00
     1        626     1     5  0.919500E+02  0.919500E+02  0.150000E+00
     1        627     1     5  0.921000E+02  0.921000E+02  0.150000E+00
     1        628     1     4  0.922500E+02  0.922500E+02  0.150000E+00
     1        629     1     5  0.924000E+02  0.924000E+02  0.150000E+00
     1        630     1     4  0.925500E+02  0.925500E+02  0.150000E+00
     1        631     1     5  0.927000E+02  0.927000E+02  0.150000E+00
     1        632     1     4  0.928500E+02  0.928500E+02  0.150000E+00
     1        633     1     5  0.930000E+02  0.930000E+02  0.150000E+00
     1        634     1     4  0.931500E+02  0.931500E+02  0.150000E+00
     1        635     1     5  0.933000E+02  0.933000E+02  0.150000E+00
     1        636     1     5  0.934500E+02  0.934500E+02  0.150000E+00
     1        637     1     5  0.936000E+02  0.936000E+02  0.150000E+00
     1        638     1     5  0.937500E+02  0.937500E+02  0.150000E+00
     1        639     1     4  0.939000E+02  0.939000E+02  0.150000E+00
     1        640     1     5  0.940500E+02  0.940500E+02  0.150000E+00
     1        641     1     4  0.942000E+02  0.942000E+02  0.150000E+00
     1        642     1     5  0.943500E+02  0.943500E+02  0.150000E+00
     1        643     1     4  0.945000E+02  0.945000E+02  0.150000E+00
     1        644     1     5  0.946500E+02  0.946500E+02  0.150000E+00
     1        645     1     4  0.948000E+02  0.948000E+02  0.150000E+00
     1        646     1     5  0.949500E+02  0.949500E+02  0.150000E+00
     1        647     1     5  0.951000E+02  0.951000E+02  0.150000E+00
     1        648     1     5  0.952500E+02  0.952500E+02  0.150000E+00
     1        649     1     5  0.954000E+02  0.954000E+02  0.150000E+00
     1        650     1     4  0.955500E+02  0.955500E+02  0.150000E+00
     1        651     1     5  0.957000E+02  0.957000E+02  0.150000E+00
     1        652     1     4  0.958500E+02  0.958500E+02  0.150000E+00
     1        653     1     5  0.960000E+02  0.960000E+02  0.150000E+00
     1        654     1     4  0.961500E+02  0.961500E+02  0.150000E+00
     1        655     1     5  0.963000E+02  0.963000E+02  0.150000E+00
     1        656     1     4  0.964500E+02  0.964500E+02  0.150000E+00
     1        657     1     5  0.966000E+02  0.966000E+02  0.150000E+00
     1        658     1     5  0.967500E+02  0.967500E+02  0.150000E+00
     1        659     1     5  0.969000E+02  0.969000E+02  0.150000E+00
     1        660     1     5  0.970500E+02  0.970500E+02  0.150000E+00
     1        661     1     4  0.972000E+02  0.972000E+02  0.150000E+00
     1        662     1     5  0.973500E+02  0.973500E+02  0.150000E+00
     1        663     1     4  0.975000E+02  0.975000E+02  0.150000E+00
     1        664     1     5  0.976500E+02  0.976500E+02  0.150000E+00
     1        665     1     4  0.978000E+02  0.978000E+02  0.150000E+00
     1        666     1     5  0.979500E+02  0.979500E+02  0.150000E+00
     1        667     1     4  0.981000E+02  0.981000E+02  0.150000E+00
     1        668     1     5  0.982500E+02  0.982500E+02  0.150000E+00
     1        669     1     5  0.984000E+02  0.984000E+02  0.150000E+00
     1        670     1     5  0.985500E+02  0.985500E+02  0.150000E+00
     1        671     1     5  0.987000E+02  0.987000E+02  0.150000E+00
     1        672     1     4  0.988500E+02  0.988500E+02  0.150000E+00
     1        673     1     5  0.990000E+02  0.990000E+02  0.150000E+00
     1        674     1     4  0.991500E+02  0.991500E+02  0.150000E+00
     1        675     1     5  0.993000E+02  0.993000E+02  0.150000E+00
     1        676     1     4  0.994500E+02  0.994500E+02  0.150000E+00
     1        677     1     5  0.996000E+02  0.996000E+02  0.150000E+00
     1        678     1     4  0.997500E+02  0.997500E+02  0.150000E+00
     1        679     1     5  0.999000E+02  0.999000E+02  0.150000E+00
     1        680     1     5  0.100050E+03  0.100050E+03  0.150000E+00
     1        681     1     4  0.100200E+03  0.100200E+03  0.150000E+00
     1        682     1     5  0.100350E+03  0.100350E+03  0.150000E+00
     1        683     1     4  0.100500E+03  0.100500E+03  0.150000E+00
     1        684     1     5  0.100650E+03  0.100650E+03  0.150000E+00
     1        685     1     4  0.100800E+03  0.100800E+03  0.150000E+00
     1        686     1     5  0.100950E+03  0.100950E+03  0.150000E+00
     1        687     1     4  0.101100E+03  0.101100E+03  0.150000E+00
     1        688     1     5  0.101250E+03  0.101250E+03  0.150000E+00
     1        689     1     5  0.101400E+03  0.101400E+03  0.150000E+00
     1        690     1     5  0.101550E+03  0.101550E+03  0.150000E+00
     1        691     1     5  0.101700E+03  0.101700E+03  0.150000E+00
     1        692     1     4  0.101850E+03  0.101850E+03  0.150000E+00
     1        693     1     5  0.102000E+03  0.102000E+03  0.150000E+00
     1        694     1     4  0.102150E+03  0.102150E+03  0.150000E+00
     1        695     1     5  0.102300E+03  0.102300E+03  0.150000E+00
     1        696     1     4  0.102450E+03  0.102450E+03  0.150000E+00
     1        697     1     5  0.102600E+03  0.102600E+03  0.150000E+00
     1        698     1     4  0.102750E+03  0.102750E+03  0.150000E+00
     1        699     1     5  0.102900E+03  0.102900E+03  0.150000E+00
     1        700     1     5  0.103050E+03  0.103050E+03  0.150000E+00
     1        701     1     5  0.103200E+03  0.103200E+03  0.150000E+00
     1        702     1     5  0.103350E+03  0.103350E+03  0.150000E+00
     1        703     1     4  0.103500E+03  0.103500E+03  0.150000E+00
     1        704     1     5  0.103650E+03  0.103650E+03  0.150000E+00
     1        705     1     4  0.103800E+03  0.103800E+03  0.150000E+00
     1        706     1     5  0.103950E+03  0.103950E+03  0.150000E+00
     1        707     1     4  0.104100E+03  0.104100E+03  0.150000E+00
     1        708     1     5  0.104250E+03  0.104250E+03  0.150000E+00
     1        709     1     4  0.104400E+03  0.104400E+03  0.150000E+00
     1        710     1     5  0.104550E+03  0.104550E+03  0.150000E+00
     1        711     1     5  0.104700E+03  0.104700E+03  0.150000E+00
     1        712     1     5  0.104850E+03  0.104850E+03  0.150000E+00
     1        713     1     5  0.105000E+03  0.105000E+03  0.150000E+00
     1        714     1     4  0.105150E+03  0.105150E+03  0.150000E+00
     1        715     1     5  0.105300E+03  0.105300E+03  0.150000E+00
     1        716     1     4  0.105450E+03  0.105450E+03  0.150000E+00
     1        717     1     5  0.105600E+03  0.105600E+03  0.150000E+00
     1        718     1     4  0.105750E+03  0.105750E+03  0.150000E+00
     1        719     1     5  0.105900E+03  0.105900E+03  0.150000E+00
     1        720     1     4  0.106050E+03  0.106050E+03  0.150000E+00
     1        721     1     5  0.106200E+03  0.106200E+03  0.150000E+00
     1        722     1     5  0.106350E+03  0.106350E+03  0.150000E+00
     1        723     1     5  0.106500E+03  0.106500E+03  0.150000E+00
     1        724     1     5  0.106650E+03  0.106650E+03  0.150000E+00
     1        725     1     4  0.106800E+03  0.106800E+03  0.150000E+00
     1        726     1     5  0.106950E+03  0.106950E+03  0.150000E+00
     1        727     1     4  0.107100E+03  0.107100E+03  0.150000E+00
     1        728     1     5  0.107250E+03  0.107250E+03  0.150000E+00
     1        729     1     4  0.107400E+03  0.107400E+03  0.150000E+00
     1        730     1     5  0.107550E+03  0.107550E+03  0.150000E+00
     1        731     1     4  0.107700E+03  0.107700E+03  0.150000E+00
     1        732     1     5  0.107850E+03  0.107850E+03  0.150000E+00
     1        733     1     5  0.108000E+03  0.108000E+03  0.150000E+00
     1        734     1     5  0.108150E+03  0.108150E+03  0.150000E+00
     1        735     1     5  0.108300E+03  0.108300E+03  0.150000E+00
     1        736     1     4  0.108450E+03  0.108450E+03  0.150000E+00
     1        737     1     5  0.108600E+03  0.108600E+03  0.150000E+00
     1        738     1     4  0.108750E+03  0.108750E+03  0.150000E+00
     1        739     1     5  0.108900E+03  0.108900E+03  0.150000E+00
     1        740     1     4  0.109050E+03  0.109050E+03  0.150000E+00
     1        741     1     5  0.109200E+03  0.109200E+03  0.150000E+00
     1        742     1     4  0.109350E+03  0.109350E+03  0.150000E+00
     1        743     1     5  0.109500E+03  0.109500E+03  0.150000E+00
     1        744     1     5  0.109650E+03  0.109650E+03  0.150000E+00
     1        745     1     5  0.109800E+03  0.109800E+03  0.150000E+00
     1        746     1     5  0.109950E+03  0.109950E+03  0.150000E+00
     1        747     1     4  0.110100E+03  0.110100E+03  0.150000E+00
     1        748     1     5  0.110250E+03  0.110250E+03  0.150000E+00
     1        749     1     4  0.110400E+03  0.110400E+03  0.150000E+00
     1        750     1     5  0.110550E+03  0.110550E+03  0.150000E+00
     1        751     1     4  0.110700E+03  0.110700E+03  0.150000E+00
     1        752     1     5  0.110850E+03  0.110850E+03  0.150000E+00
     1        753     1     4  0.111000E+03  0.111000E+03  0.150000E+00
     1        754     1     5  0.111150E+03  0.111150E+03  0.150000E+00
     1        755     1     5  0.111300E+03  0.111300E+03  0.150000E+00
     1        756     1     5  0.111450E+03  0.111450E+03  0.150000E+00
     1        757     1     5  0.111600E+03  0.111600E+03  0.150000E+00
     1        758     1     4  0.111750E+03  0.111750E+03  0.150000E+00
     1        759     1     5  0.111900E+03  0.111900E+03  0.150000E+00
     1        760     1     4  0.112050E+03  0.112050E+03  0.150000E+00
     1        761     1     5  0.112200E+03  0.112200E+03  0.150000E+00
     1        762     1     4  0.112350E+03  0.112350E+03  0.150000E+00
     1        763     1     5  0.112500E+03  0.112500E+03  0.150000E+00
     1        764     1     4  0.112650E+03  0.112650E+03  0.150000E+00
     1        765     1     5  0.112800E+03  0.112800E+03  0.150000E+00
     1        766     1     5  0.112950E+03  0.112950E+03  0.150000E+00
     1        767     1     5  0.113100E+03  0.113100E+03  0.150000E+00
     1        768     1     5  0.113250E+03  0.113250E+03  0.150000E+00
     1        769     1     4  0.113400E+03  0.113400E+03  0.150000E+00
     1        770     1     5  0.113550E+03  0.113550E+03  0.150000E+00
     1        771     1     4  0.113700E+03  0.113700E+03  0.150000E+00
     1        772     1     5  0.113850E+03  0.113850E+03  0.150000E+00
     1        773     1     4  0.114000E+03  0.114000E+03  0.150000E+00
     1        774     1     5  0.114150E+03  0.114150E+03  0.150000E+00
     1        775     1     4  0.114300E+03  0.114300E+03  0.150000E+00
     1        776     1     5  0.114450E+03  0.114450E+03  0.150000E+00
     1        777     1     5  0.114600E+03  0.114600E+03  0.150000E+00
     1        778     1     5  0.114750E+03  0.114750E+03  0.150000E+00
     1        779     1     5  0.114900E+03  0.114900E+03  0.150000E+00
     1        780     1     4  0.115050E+03  0.115050E+03  0.150000E+00
     1        781     1     5  0.115200E+03  0.115200E+03  0.150000E+00
     1        782     1     4  0.115350E+03  0.115350E+03  0.150000E+00
     1        783     1     5  0.115500E+03  0.115500E+03  0.150000E+00
     1        784     1     4  0.115650E+03  0.115650E+03  0.150000E+00
     1        785     1     5  0.115800E+03  0.115800E+03  0.150000E+00
     1        786     1     4  0.115950E+03  0.115950E+03  0.150000E+00
     1        787     1     5  0.116100E+03  0.116100E+03  0.150000E+00
     1        788     1     5  0.116250E+03  0.116250E+03  0.150000E+00
     1        789     1     5  0.116400E+03  0.116400E+03  0.150000E+00
     1        790     1     5  0.116550E+03  0.116550E+03  0.150000E+00
     1        791     1     4  0.116700E+03  0.116700E+03  0.150000E+00
     1        792     1     5  0.116850E+03  0.116850E+03  0.150000E+00
     1        793     1     4  0.117000E+03  0.117000E+03  0.150000E+00
     1        794     1     5  0.117150E+03  0.117150E+03  0.150000E+00
     1        795     1     4  0.117300E+03  0.117300E+03  0.150000E+00
     1        796     1     5  0.117450E+03  0.117450E+03  0.150000E+00
     1        797     1     4  0.117600E+03  0.117600E+03  0.150000E+00
     1        798     1     5  0.117750E+03  0.117750E+03  0.150000E+00
     1        799     1     5  0.117900E+03  0.117900E+03  0.150000E+00
     1        800     1     5  0.118050E+03  0.118050E+03  0.150000E+00
     1        801     1     5  0.118200E+03  0.118200E+03  0.150000E+00
     1        802     1     4  0.118350E+03  0.118350E+03  0.150000E+00
     1        803     1     5  0.118500E+03  0.118500E+03  0.150000E+00
     1        804     1     4  0.118650E+03  0.118650E+03  0.150000E+00
     1        805     1     5  0.118800E+03  0.118800E+03  0.150000E+00
     1        806     1     4  0.118950E+03  0.118950E+03  0.150000E+00
     1        807     1     5  0.119100E+03  0.119100E+03  0.150000E+00
     1        808     1     4  0.119250E+03  0.119250E+03  0.150000E+00
     1        809     1     5  0.119400E+03  0.119400E+03  0.150000E+00
     1        810     1     5  0.119550E+03  0.119550E+03  0.150000E+00
     1        811     1     4  0.119700E+03  0.119700E+03  0.150000E+00
     1        812     1     5  0.119850E+03  0.119850E+03  0.150000E+00
     1        813     1     4  0.120000E+03  0.120000E+03  0.150000E+00
