*INCLUDE, INPUT=Tube_Mesh_7p5mQ_OUT.inp

*MATERIAL,NAME=Metal
*CONDUCTIVITY 
16.6
*ELASTIC
152.18E9, 0.3
*EXPANSION
1.6900E-5
*SPECIFIC HEAT
5.0200E+02
*DENSITY
8.026E+03

*BOUNDARY
FrontFix,1
*BOUNDARY
FrontFix,2
*FrontFix,3
*BOUNDARY
FrontFix,4
*BOUNDARY
FrontFix,5
*BOUNDARY
FrontFix,6

*BOUNDARY
BackFix,1
*BOUNDARY
BackFix,2
*BOUNDARY
BackFix,3
*BOUNDARY
BackFix,4
*BOUNDARY
BackFix,5
*BOUNDARY
BackFix,6

*SHELL SECTION,MATERIAL=Metal,ELSET=Eall
0.000203

*STEP 
*FREQUENCY
10

*NODE FILE 
U  
*EL FILE 
S, E
*NODE PRINT,NSET=Eall
U
*END STEP

